*DSSAT Cropping System Model Ver. 4.0.2.000               Feb 23, 2021; 08:40:03

*RUN   6        : C:\SCENARIOS 02042021\FULLX200A\                                                
 MODEL          : MZCER040 - MAIZE     
 EXPERIMENT     : EXPDSSAT MZ RZWQM2-NOT SPECIFIED                              
 TREATMENT  4   : C:\SCENARIOS 02042021\FULLX200A\                                                

 CROP           : MAIZE          CULTIVAR : LONG SEASON      ECOTYPE :IB0001
 STARTING DATE  : MAY  1 2015
 PLANTING DATE  : MAY  1 2015    PLANTS/m2 :  8.5     ROW SPACING :  76.cm 
 WEATHER        : RZWQ   2015
 SOIL           : Hastings s     TEXTURE :       -                          
 SOIL INITIAL C : DEPTH:149cm EXTR. H2O:117.4mm  NO3:  24.8kg/ha  NH4:  8.3kg/ha
 WATER BALANCE  : IRRIGATE ON REPORTED DATE(S)
 IRRIGATION     :        0 mm IN     0 APPLICATIONS [See RZWQM Outputs]
 NITROGEN BAL.  : SOIL-N & N-UPTAKE SIMULATION; NO N-FIXATION
 N-FERTILIZER   :        0 kg N/ha IN     0 APPLICATIONS [See RZWQM Outputs]
 RESIDUE/MANURE : INITIAL :    12 kg/ha ;       0 kg/ha IN     0 APPLICATIONS
 ENVIRONM. OPT. :                                                             
                                                                              
 SIMULATION OPT : WATER   :Y  NITROGEN:Y  N-FIX:N  PHOSPH :N  PESTS  :N
                  PHOTO   :C  ET      :R  INFIL:N  HYDROL :N  SOM    :R
 MANAGEMENT OPT : PLANTING:R  IRRIG   :R  FERT :R  RESIDUE:R  HARVEST:M  WTH:N

*SUMMARY OF SOIL AND GENETIC INPUT PARAMETERS

   SOIL LOWER UPPER   SAT  EXTR  INIT   ROOT   BULK     pH    NO3    NH4    ORG
  DEPTH LIMIT LIMIT    SW    SW    SW   DIST   DENS                          C
   cm   cm3/cm3    cm3/cm3    cm3/cm3         g/cm3         ugN/g  ugN/g     %
-------------------------------------------------------------------------------
  0-  5 0.158 0.246 0.525 0.088 0.309   1.00   1.26   6.72   2.46   5.70   1.55
  5- 15 0.158 0.246 0.515 0.088 0.330   1.00   1.29   6.72   3.12   3.35   1.55
 15- 30 0.148 0.234 0.581 0.086 0.331   0.96   1.11   6.17   4.65   0.03   1.12
 30- 45 0.250 0.333 0.426 0.083 0.392   0.84   1.52   6.71   1.91   0.00   0.66
 45- 60 0.250 0.333 0.426 0.083 0.402   0.84   1.52   6.71   0.89   0.00   0.66
 60- 90 0.272 0.348 0.453 0.076 0.423   0.71   1.45   6.98   0.63   0.00   0.31
 90-120 0.307 0.376 0.517 0.068 0.454   0.22   1.28   7.39   0.49   0.00   0.26
120-149 0.091 0.170 0.589 0.079 0.232   0.12   1.09   7.52   0.33   0.00   0.23

TOT-149  32.1  43.8  75.5  11.7  54.8  <--cm   -  kg/ha-->   24.8    8.3 661461
SOIL ALBEDO    : 0.30      EVAPORATION LIMIT : 0.00         MIN. FACTOR  : 1.00
RUNOFF CURVE # : 0.00      DRAINAGE RATE     : 0.00         FERT. FACTOR : 1.00

 MAIZE      CULTIVAR :990001-LONG SEASON        ECOTYPE :IB0001
 P1     : 207.60  P2     : 0.7690  P5     : 919.00
 G2     : 978.20  G3     :  6.102  PHINT  : 38.250



