*PLANT N OUTPUT FILE

*DSSAT Cropping System Model Ver. 4.0.2.000               Feb 23, 2021; 08:27:48

*RUN   1        :C:\SCENARIOS 02042021\FULLX200A\                                                
 MODEL          : MZCER040 - Maize           
 EXPERIMENT     : EXPDSSAT MZ    RZWQM2-NOT SPECIFIED                           
 TREATMENT  4   :C:\SCENARIOS 02042021\FULLX200A\                                                

@YEAR DOY   DAS   DAP   CNAD   GNAD   VNAD   GN%D   VN%D   NUPC   LNAD   SNAD   LN%D   SN%D   RN%D   SNN0C   SNN1C
 2010 111   110     0    0.0    0.0    0.0   0.00   0.00    0.0    0.0    0.0    0.0   0.00   0.00    0.00    0.00
 2010 121   120    10    0.0    0.0    0.0   0.00   0.00    0.0    0.0    0.0    0.0   0.00   0.00    0.00    0.00
 2010 131   130    20    1.3    0.0    1.3   0.00   4.51    0.2    0.7    0.7    4.5   4.51   1.12    0.00    0.00
 2010 141   140    30    1.3    0.0    1.3   0.00   4.31    0.3    0.6    0.6    4.3   4.31   1.20    0.00    0.00
 2010 151   150    40    6.7    0.0    6.7   0.00   3.38    7.8    6.2    0.5    3.4   3.38   1.32    0.00    0.04
 2010 161   160    50   30.5    0.0   30.5   0.00   3.42   35.3   29.6    0.9    3.4   3.42   1.07    0.00    0.24
 2010 171   170    60   69.3    0.0   69.3   0.00   3.00   82.0   58.3   10.9    3.0   3.00   1.07    0.00    0.74
 2010 181   180    70  142.5    0.0  142.5   0.00   2.61  166.5   93.2   49.3    2.6   2.61   1.12    0.00    1.69
 2010 191   190    80  190.5    0.0  190.5   0.00   2.29  220.8   99.6   90.8    2.3   2.29   1.10    0.00    2.94
 2010 201   200    90  202.3    0.0  202.3   0.00   2.39  234.5   95.5  106.9    2.4   2.39   1.01    0.00    3.38
 2010 211   210   100  202.3   42.0  160.3   1.72   1.89  234.5   74.3   86.0    1.9   1.89   0.92    0.00    3.38
 2010 221   220   110  212.0   88.8  123.3   1.72   1.46  253.4   57.2   66.1    1.5   1.46   1.08    0.00    4.63
 2010 231   230   120  239.9  135.4  104.5   1.72   1.24  285.0   48.6   55.9    1.2   1.24   1.07    0.00    6.39
 2010 241   240   130  263.2  181.1   82.1   1.71   0.97  311.5   38.1   44.0    1.0   0.97   1.06    0.00    8.42
 2010 251   250   140  269.7  204.2   65.5   1.68   0.79  319.0   30.8   34.6    0.8   0.79   1.07    0.00    9.65
 2010 253   252   142  269.7  204.2   65.5   1.68   0.79  319.0   30.8   34.6    0.8   0.79   1.07    0.00    9.65

*DSSAT Cropping System Model Ver. 4.0.2.000               Feb 23, 2021; 08:30:36

*RUN   2        :C:\SCENARIOS 02042021\FULLX200A\                                                
 MODEL          : MZCER040 - Maize           
 EXPERIMENT     : EXPDSSAT MZ    RZWQM2-NOT SPECIFIED                           
 TREATMENT  4   :C:\SCENARIOS 02042021\FULLX200A\                                                

@YEAR DOY   DAS   DAP   CNAD   GNAD   VNAD   GN%D   VN%D   NUPC   LNAD   SNAD   LN%D   SN%D   RN%D   SNN0C   SNN1C
 2011 123     0     0    0.0    0.0    0.0   0.00   0.00    0.0    0.0    0.0    0.0   0.00   0.00    0.00    0.00
 2011 133    10    10    1.3    0.0    1.3   0.00   4.46    0.2    0.7    0.7    4.5   4.46   1.15    0.00    0.00
 2011 143    20    20    1.4    0.0    1.4   0.00   3.45    0.5    0.9    0.5    3.4   3.45   1.24    0.00    0.01
 2011 153    30    30    5.7    0.0    5.7   0.00   3.20    6.2    5.3    0.5    3.2   3.20   1.19    0.00    0.05
 2011 163    40    40   28.3    0.0   28.3   0.00   3.54   35.2   27.8    0.6    3.5   3.54   1.21    0.00    0.24
 2011 173    50    50   69.6    0.0   69.6   0.00   3.13   85.8   62.6    6.9    3.1   3.13   1.18    0.00    0.79
 2011 183    60    60  130.2    0.0  130.2   0.00   2.75  153.8   93.3   36.9    2.8   2.75   1.07    0.00    1.83
 2011 193    70    70  192.9    0.0  192.9   0.00   2.24  220.4  107.9   85.0    2.2   2.24   1.07    0.00    3.06
 2011 203    80    80  197.2    0.0  197.2   0.00   2.12  227.0   98.8   98.5    2.1   2.12   1.04    0.00    4.10
 2011 213    90    90  198.5   38.0  160.5   1.73   1.73  232.2   77.4   83.1    1.7   1.73   1.08    0.00    4.38
 2011 223   100   100  203.1   83.8  119.4   1.70   1.28  238.7   57.6   61.8    1.3   1.28   1.03    0.00    5.93
 2011 233   110   110  206.0  121.1   84.9   1.58   0.91  243.1   41.0   44.0    0.9   0.91   1.01    0.00    7.47
 2011 243   120   120  208.3  148.8   59.4   1.43   0.68  246.9   30.3   29.1    0.7   0.68   1.04    0.00    9.02
 2011 253   130   130  210.5  167.8   42.7   1.29   0.55  250.0   24.7   17.9    0.6   0.55   1.07    0.00   10.56
 2011 258   135   135  210.7  168.5   42.2   1.28   0.55  250.3   24.5   17.7    0.5   0.55   1.07    0.00   10.71

*DSSAT Cropping System Model Ver. 4.0.2.000               Feb 23, 2021; 08:32:38

*RUN   3        :C:\SCENARIOS 02042021\FULLX200A\                                                
 MODEL          : MZCER040 - Maize           
 EXPERIMENT     : EXPDSSAT MZ    RZWQM2-NOT SPECIFIED                           
 TREATMENT  4   :C:\SCENARIOS 02042021\FULLX200A\                                                

@YEAR DOY   DAS   DAP   CNAD   GNAD   VNAD   GN%D   VN%D   NUPC   LNAD   SNAD   LN%D   SN%D   RN%D   SNN0C   SNN1C
 2012 115     0     0    0.0    0.0    0.0   0.00   0.00    0.0    0.0    0.0    0.0   0.00   0.00    0.00    0.00
 2012 125    10    10    1.5    0.0    1.5   0.00   4.40    0.0    0.7    0.7    4.4   4.40   0.00    0.00    0.00
 2012 135    20    20    1.7    0.0    1.7   0.00   3.46    0.9    1.1    0.6    3.5   3.46   1.23    0.00    0.01
 2012 145    30    30   10.7    0.0   10.7   0.00   3.31   13.0   10.2    0.6    3.3   3.31   1.26    0.00    0.09
 2012 155    40    40   33.3    0.0   33.3   0.00   3.48   42.0   32.6    0.8    3.5   3.48   1.15    0.00    0.39
 2012 165    50    50   85.2    0.0   85.2   0.00   3.06  104.6   73.9   11.3    3.1   3.06   1.11    0.00    1.12
 2012 175    60    60  168.5    0.0  168.5   0.00   2.67  193.1  114.1   54.4    2.7   2.67   1.08    0.00    2.21
 2012 185    70    70  207.2    0.0  207.2   0.00   1.98  233.5  109.1   98.0    2.0   1.98   1.02    0.00    3.42
 2012 195    80    80  208.3    0.0  208.3   0.00   2.09  237.1   99.8  108.5    2.1   2.09   0.92    0.00    4.16
 2012 205    90    90  206.4   47.1  159.3   1.74   1.60  244.0   74.5   84.8    1.6   1.60   1.03    0.00    5.29
 2012 215   100   100  208.4   95.3  113.2   1.68   1.13  248.0   52.9   60.2    1.1   1.13   0.96    0.00    6.99
 2012 225   110   110  210.3  131.9   78.4   1.52   0.79  251.7   36.7   41.7    0.8   0.79   0.96    0.00    8.69
 2012 235   120   120  212.1  156.7   55.3   1.34   0.60  255.1   27.8   27.5    0.6   0.60   1.00    0.00   10.40
 2012 245   130   130  213.3  167.3   46.1   1.25   0.56  257.2   26.3   19.8    0.6   0.56   1.02    0.00   11.42

*DSSAT Cropping System Model Ver. 4.0.2.000               Feb 23, 2021; 08:35:06

*RUN   4        :C:\SCENARIOS 02042021\FULLX200A\                                                
 MODEL          : MZCER040 - Maize           
 EXPERIMENT     : EXPDSSAT MZ    RZWQM2-NOT SPECIFIED                           
 TREATMENT  4   :C:\SCENARIOS 02042021\FULLX200A\                                                

@YEAR DOY   DAS   DAP   CNAD   GNAD   VNAD   GN%D   VN%D   NUPC   LNAD   SNAD   LN%D   SN%D   RN%D   SNN0C   SNN1C
 2013 136     0     0    0.0    0.0    0.0   0.00   0.00    0.0    0.0    0.0    0.0   0.00   0.00    0.00    0.00
 2013 146    10    10    1.5    0.0    1.5   0.00   4.50    0.2    0.8    0.8    4.5   4.50   1.10    0.00    0.00
 2013 156    20    20    2.7    0.0    2.7   0.00   3.60    2.0    2.1    0.6    3.6   3.60   1.20    0.00    0.02
 2013 166    30    30   17.9    0.0   17.9   0.00   3.79   20.3   17.2    0.6    3.8   3.79   1.20    0.00    0.12
 2013 176    40    40   67.0    0.0   67.0   0.00   3.23   76.2   62.0    4.9    3.2   3.23   1.14    0.00    0.46
 2013 186    50    50  135.3    0.0  135.3   0.00   2.84  155.1  101.5   33.8    2.8   2.84   1.08    0.00    1.25
 2013 196    60    60  201.7    0.0  201.7   0.00   2.28  223.8  115.3   86.4    2.3   2.28   1.03    0.00    2.28
 2013 206    70    70  205.9    0.0  205.9   0.00   2.13  230.6  109.3   96.6    2.1   2.13   0.92    0.00    3.37
 2013 216    80    80  204.5    7.8  196.7   1.70   2.06  231.7   92.0  104.7    2.1   2.06   0.91    0.00    3.60
 2013 226    90    90  202.8   46.7  156.1   1.70   1.64  237.6   73.0   83.1    1.6   1.64   1.07    0.00    4.36
 2013 236   100   100  205.3   84.1  121.2   1.67   1.27  241.9   56.7   64.5    1.3   1.27   1.00    0.00    5.96
 2013 246   110   110  206.9  117.6   89.3   1.61   0.94  245.3   41.8   47.5    0.9   0.94   0.92    0.00    7.57
 2013 256   120   120  208.7  143.5   65.2   1.49   0.68  248.9   30.5   34.7    0.7   0.68   0.94    0.00    9.19
 2013 266   130   130  209.5  156.8   52.7   1.40   0.60  250.9   27.0   25.7    0.6   0.60   0.98    0.00   10.33
 2013 269   133   133  209.5  156.8   52.7   1.40   0.60  250.9   27.0   25.7    0.6   0.60   0.98    0.00   10.33

*DSSAT Cropping System Model Ver. 4.0.2.000               Feb 23, 2021; 08:37:48

*RUN   5        :C:\SCENARIOS 02042021\FULLX200A\                                                
 MODEL          : MZCER040 - Maize           
 EXPERIMENT     : EXPDSSAT MZ    RZWQM2-NOT SPECIFIED                           
 TREATMENT  4   :C:\SCENARIOS 02042021\FULLX200A\                                                

@YEAR DOY   DAS   DAP   CNAD   GNAD   VNAD   GN%D   VN%D   NUPC   LNAD   SNAD   LN%D   SN%D   RN%D   SNN0C   SNN1C
 2014 122     0     0    0.0    0.0    0.0   0.00   0.00    0.0    0.0    0.0    0.0   0.00   0.00    0.00    0.00
 2014 132    10    10    1.5    0.0    1.5   0.00   4.56    0.2    0.8    0.8    4.6   4.56   1.08    0.00    0.00
 2014 142    20    20    1.5    0.0    1.5   0.00   4.29    0.3    0.7    0.7    4.3   4.29   1.26    0.00    0.00
 2014 152    30    30    9.4    0.0    9.4   0.00   3.26   10.0    8.8    0.6    3.3   3.26   1.11    0.00    0.05
 2014 162    40    40   30.2    0.0   30.2   0.00   3.44   38.7   29.3    0.9    3.4   3.44   1.20    0.00    0.26
 2014 172    50    50   84.8    0.0   84.8   0.00   3.01  102.5   70.2   14.7    3.0   3.01   1.09    0.00    0.98
 2014 182    60    60  150.9    0.0  150.9   0.00   2.65  173.3  101.0   49.9    2.7   2.65   1.10    0.00    1.98
 2014 192    70    70  184.1    0.0  184.1   0.00   2.02  209.4   97.3   86.8    2.0   2.02   0.97    0.00    3.15
 2014 202    80    80  187.2    0.0  187.2   0.00   1.94  214.4   93.1   94.2    1.9   1.94   0.81    0.00    4.35
 2014 212    90    90  188.0   22.4  165.6   1.68   1.69  217.7   74.0   91.6    1.7   1.69   0.76    0.00    5.59
 2014 222   100   100  189.4   63.2  126.2   1.58   1.29  221.4   56.3   69.8    1.3   1.29   0.74    0.00    6.90
 2014 232   110   110  190.4   97.3   93.2   1.46   0.95  224.2   41.6   51.6    1.0   0.95   0.72    0.00    8.23
 2014 242   120   120  191.0  124.0   67.0   1.33   0.71  226.3   31.2   35.8    0.7   0.71   0.76    0.00    9.59
 2014 252   130   130  191.9  143.6   48.3   1.20   0.58  228.9   25.3   23.0    0.6   0.58   0.80    0.00   10.96
 2014 262   140   140  192.0  148.9   43.1   1.16   0.53  230.5   23.4   19.8    0.5   0.53   0.84    0.00   12.34
 2014 270   148   148  192.2  149.7   42.5   1.16   0.53  231.2   23.0   19.5    0.5   0.53   0.86    0.00   12.75

*DSSAT Cropping System Model Ver. 4.0.2.000               Feb 23, 2021; 08:40:03

*RUN   6        :C:\SCENARIOS 02042021\FULLX200A\                                                
 MODEL          : MZCER040 - Maize           
 EXPERIMENT     : EXPDSSAT MZ    RZWQM2-NOT SPECIFIED                           
 TREATMENT  4   :C:\SCENARIOS 02042021\FULLX200A\                                                

@YEAR DOY   DAS   DAP   CNAD   GNAD   VNAD   GN%D   VN%D   NUPC   LNAD   SNAD   LN%D   SN%D   RN%D   SNN0C   SNN1C
 2015 121     0     0    0.0    0.0    0.0   0.00   0.00    0.0    0.0    0.0    0.0   0.00   0.00    0.00    0.00
 2015 131    10    10    0.0    0.0    0.0   0.00   0.00    0.0    0.0    0.0    0.0   0.00   0.00    0.00    0.00
 2015 141    20    20    1.5    0.0    1.5   0.00   4.37    0.3    0.7    0.7    4.4   4.37   1.21    0.00    0.00
 2015 151    30    30    3.1    0.0    3.1   0.00   3.61    2.8    2.5    0.6    3.6   3.61   1.30    0.00    0.02
 2015 161    40    40   15.1    0.0   15.1   0.00   3.04   18.2   14.6    0.5    3.0   3.04   1.05    0.00    0.13
 2015 171    50    50   24.8    0.0   24.8   0.00   1.84   29.9   23.5    1.3    1.8   1.84   0.68    0.00    0.39
