*GROWTH ASPECTS OUTPUT FILE

*DSSAT Cropping System Model Ver. 4.0.2.000               Feb 23, 2021; 08:27:48

*RUN   1        :C:\SCENARIOS 02042021\FULLX200A\                                                
 MODEL          : MZCER040 - Maize           
 EXPERIMENT     : EXPDSSAT MZ    RZWQM2-NOT SPECIFIED                           
 TREATMENT  4   :C:\SCENARIOS 02042021\FULLX200A\                                                

@YEAR DOY   DAS   DAP   L#SD   GSTD   LAID   LWAD   SWAD   GWAD   RWAD   CWAD   G#AD   GWGD   HIAD   PWAD   P#AD   WSPD   WSGD   NSTD   EWSD   LN%D   SH%D   HIPD   PWDD   PWTD     SLAD   CHTD   CWID   RDPD   RL1D   RL2D   RL3D   RL4D   RL5D   RL6D   RL7D   RL8D   RL9D   RL10   CDAD   LDAD   SDAD   SNW0C   SNW1C
 2010 111   110     0    0.0      0   0.00      0      0      0      0      0      0    0.0  0.000      0      0  0.000  0.000  0.000  0.000   0.00   0.00   0.00      0      0      0.0   0.00   0.00   0.05   0.00   0.00   0.00   0.00   0.00   0.00   0.00   0.00   0.00   0.00      0      0      0       0       0
 2010 121   120    10    0.0      0   0.00      0      0      0      0      0      0    0.0  0.000      0      0  0.000  0.000  0.000  0.000   0.00   0.00   0.00      0      0      0.0   0.00   0.00   0.14   0.00   0.00   0.00   0.00   0.00   0.00   0.00   0.00   0.00   0.00      0      0      0       0       0
 2010 131   130    20    2.0      1   0.01     15     15      0     16     29      0    0.0  0.000      0      0  0.000  0.000  0.000  0.000   4.51   0.00   0.00      0      0     38.0   0.02   0.00   0.19   0.30   0.16   0.00   0.00   0.00   0.00   0.00   0.00   0.00   0.00      0      0      0       0       0
 2010 141   140    30    4.0      1   0.03     15     15      0     23     29      0    0.0  0.000      0      0  0.000  0.000  0.000  0.000   4.31   0.00   0.00      0      0    215.5   0.02   0.00   0.24   0.34   0.23   0.03   0.00   0.00   0.00   0.00   0.00   0.00   0.00      0      0      0       0       0
 2010 151   150    40    8.0      2   0.40    185     15      0    174    199      0    0.0  0.000      0      0  0.000  0.000  0.001  0.040   3.38   0.00   0.00      0      0    218.3   0.09   0.00   0.39   0.59   0.71   0.94   0.33   0.00   0.00   0.00   0.00   0.00   0.00      0      0      0       0       3
 2010 161   160    50   12.0      3   1.37    866     27      0    546    892      0    0.0  0.000      0      0  0.000  0.000  0.022  0.073   3.42   0.00   0.00      0      0    158.0   0.39   0.00   0.67   2.38   2.23   1.75   1.11   0.49   0.02   0.00   0.00   0.00   0.00      0      0      0       0      20
 2010 171   170    60   15.0      3   2.60   1948    365      0   1238   2313      0    0.0  0.000      0      0  0.000  0.000  0.022  0.322   3.00   0.00   0.00      0      0    133.5   0.94   0.00   0.90   3.23   3.15   2.71   1.92   1.40   0.55   0.00   0.00   0.00   0.00      0      0      0       0      63
 2010 181   180    70   19.0      3   4.19   3575   1892      0   2102   5467      0    0.0  0.000      0      0  0.000  0.000  0.022  0.000   2.61   0.00   0.00      0      0    117.3   1.66   0.00   1.05   4.00   4.00   4.00   3.57   3.15   1.85   0.12   0.00   0.00   0.00      0      0      0       0     148
 2010 191   190    80   22.0      3   4.75   4354   3971      0   2599   8325      0    0.0  0.000      0      0  0.000  0.000  0.022  0.000   2.29   0.00   0.00      0      0    109.2   2.03   0.00   1.18   4.00   4.00   4.00   4.00   4.00   2.66   0.48   0.00   0.00   0.00      0      0      0       0     262
 2010 201   200    90   22.0      4   4.60   4003   4480      0   2982  11308      0    0.0  0.000   2825      0  0.000  0.000  0.022  0.000   2.39   0.00   0.25      0   2825    115.0   2.23   0.00   1.30   4.00   4.00   4.00   4.00   4.00   3.31   1.09   0.05   0.00   0.00      0      0      0       0     302
 2010 211   210   100   22.0      5   4.42   3925   4539   2439   3263  13874   4441   54.9  0.176   5410      7  0.000  0.000  0.000  0.000   1.89  45.08   0.39      0   5410    112.6   2.25   0.00   1.42   4.00   4.00   4.00   4.00   4.00   3.64   1.46   0.19   0.00   0.00      0      0      0       0     302
 2010 221   220   110   22.0      5   4.27   3925   4539   5149   3525  16584   4441  115.9  0.310   8120      7  0.000  0.000  0.000  0.000   1.46  63.41   0.49      0   8120    108.7   2.25   0.00   1.49   4.00   4.00   4.00   4.00   4.00   3.87   1.77   0.38   0.00   0.00      0      0      0       0     422
 2010 231   230   120   22.0      5   3.65   3925   4518   7858   3721  19273   4441  177.0  0.408  10829      7  0.000  0.000  0.000  0.000   1.24  72.57   0.56      0  10829     93.0   2.25   0.00   1.49   3.97   3.98   3.99   4.00   4.00   3.98   2.31   0.74   0.00   0.00      0      0      0       0     585
 2010 241   240   130   22.0      5   2.73   3925   4539  10568   3876  22003   4441  238.0  0.480  13539      7  0.000  0.000  0.027  0.000   0.97  78.06   0.62      0  13539     69.6   2.25   0.00   1.49   3.99   3.99   3.99   3.98   3.98   3.94   3.19   1.36   0.00   0.00      0      0      0       0     775
 2010 251   250   140   22.0      5   2.13   3925   4413  12166   3829  23475   4441  274.0  0.518  15137      7  0.000  0.000  0.116  0.000   0.79  80.37   0.64      0  15137     54.2   2.24   0.00   1.49   4.00   4.00   4.00   3.99   3.99   3.92   3.20   1.41   0.00   0.00      0      0      0       0     890
 2010 253   252   142   22.0      5   2.13   3925   4413  12166   3829  23475   4441  274.0  0.518  15137      7  0.000  0.000  0.116  0.000   0.79  80.37   0.64      0  15137     54.2   2.24   0.00   1.49   4.00   4.00   3.99   3.98   3.99   3.91   3.17   1.40   0.00   0.00      0      0      0       0     890

*DSSAT Cropping System Model Ver. 4.0.2.000               Feb 23, 2021; 08:30:36

*RUN   2        :C:\SCENARIOS 02042021\FULLX200A\                                                
 MODEL          : MZCER040 - Maize           
 EXPERIMENT     : EXPDSSAT MZ    RZWQM2-NOT SPECIFIED                           
 TREATMENT  4   :C:\SCENARIOS 02042021\FULLX200A\                                                

@YEAR DOY   DAS   DAP   L#SD   GSTD   LAID   LWAD   SWAD   GWAD   RWAD   CWAD   G#AD   GWGD   HIAD   PWAD   P#AD   WSPD   WSGD   NSTD   EWSD   LN%D   SH%D   HIPD   PWDD   PWTD     SLAD   CHTD   CWID   RDPD   RL1D   RL2D   RL3D   RL4D   RL5D   RL6D   RL7D   RL8D   RL9D   RL10   CDAD   LDAD   SDAD   SNW0C   SNW1C
 2011 123     0     0    0.0      0   0.00      0      0      0      0      0      0    0.0  0.000      0      0  0.000  0.000  0.000  0.000   0.00   0.00   0.00      0      0      0.0   0.00   0.00   0.05   0.00   0.00   0.00   0.00   0.00   0.00   0.00   0.00   0.00   0.00      0      0      0       0       0
 2011 133    10    10    2.0      1   0.01     15     15      0     16     29      0    0.0  0.000      0      0  0.000  0.000  0.000  0.000   4.46   0.00   0.00      0      0     79.0   0.02   0.00   0.21   0.29   0.16   0.02   0.00   0.00   0.00   0.00   0.00   0.00   0.00      0      0      0       0       0
 2011 143    20    20    5.0      1   0.07     25     15      0     34     40      0    0.0  0.000      0      0  0.000  0.000  0.000  0.000   3.45   0.00   0.00      0      0    291.8   0.02   0.00   0.27   0.33   0.26   0.16   0.00   0.00   0.00   0.00   0.00   0.00   0.00      0      0      0       0       1
 2011 153    30    30    7.0      1   0.34    164     15      0    141    179      0    0.0  0.000      0      0  0.000  0.000  0.000  0.038   3.20   0.00   0.00      0      0    209.4   0.08   0.00   0.39   0.33   0.66   0.78   0.19   0.00   0.00   0.00   0.00   0.00   0.00      0      0      0       0       4
 2011 163    40    40   11.0      3   1.26    785     16      0    655    801      0    0.0  0.000      0      0  0.000  0.000  0.022  0.046   3.54   0.00   0.00      0      0    160.5   0.36   0.00   0.66   4.00   4.00   0.74   1.13   0.77   0.03   0.00   0.00   0.00   0.00      0      0      0       0      20
 2011 173    50    50   15.0      3   2.65   1997    222      0   1422   2219      0    0.0  0.000      0      0  0.000  0.000  0.022  0.000   3.13   0.00   0.00      0      0    132.8   0.89   0.00   0.89   4.00   4.00   2.28   1.75   1.50   0.40   0.00   0.00   0.00   0.00      0      0      0       0      68
 2011 183    60    60   19.0      3   4.01   3389   1341      0   2161   4730      0    0.0  0.000      0      0  0.000  0.000  0.022  0.000   2.75   0.00   0.00      0      0    118.3   1.54   0.00   1.04   4.00   4.00   4.00   2.24   1.87   0.67   0.02   0.00   0.00   0.00      0      0      0       0     161
 2011 193    70    70   23.0      3   5.09   4814   3789      0   2412   8604      0    0.0  0.000      0      0  0.000  0.000  0.022  0.023   2.24   0.00   0.00      0      0    105.7   2.06   0.00   1.19   4.00   4.00   4.00   2.86   2.09   0.74   0.21   0.00   0.00   0.00      0      0      0       0     274
 2011 203    80    80   23.0      4   4.90   4651   4636      0   2606  12110      0    0.0  0.000   2823      0  0.000  0.000  0.022  0.000   2.12   0.00   0.23      0   2823    105.4   2.26   0.00   1.33   4.00   4.00   4.00   3.30   2.57   1.20   0.36   0.11   0.00   0.00      0      0      0       0     373
 2011 213    90    90   23.0      5   4.61   4482   4810   2190   2841  14739   4487   48.8  0.149   5447      7  0.000  0.000  0.000  0.000   1.73  40.21   0.37      0   5447    102.9   2.29   0.00   1.45   4.00   4.00   4.00   3.67   2.96   1.57   0.47   0.32   0.00   0.00      0      0      0       0     401
 2011 223   100   100   23.0      5   4.41   4482   4810   4928   2989  17476   4487  109.8  0.282   8185      7  0.000  0.000  0.043  0.000   1.28  60.21   0.47      0   8185     98.5   2.29   0.00   1.49   4.00   4.00   4.00   4.00   3.36   1.95   0.59   0.39   0.00   0.00      0      0      0       0     547
 2011 233   110   110   23.0      5   3.87   4482   4810   7666   3051  20214   4487  170.9  0.379  10923      7  0.000  0.000  0.155  0.000   0.91  70.18   0.54      0  10923     86.3   2.29   0.00   1.49   4.00   4.00   4.00   3.99   3.60   2.20   0.66   0.42   0.00   0.00      0      0      0       0     699
 2011 243   120   120   23.0      5   2.96   4482   4299  10403   2975  22441   4487  231.9  0.464  13660      7  0.000  0.000  0.351  0.000   0.68  76.16   0.61      0  13660     66.0   2.28   0.00   1.49   3.98   3.98   3.98   3.98   3.65   2.27   0.68   0.43   0.00   0.00      0      0      0       0     851
 2011 253   130   130   23.0      5   2.01   4482   3249  13034   2830  24022   4487  290.5  0.543  16292      7  0.000  0.000  0.608  0.000   0.55  80.01   0.68      0  16292     44.9   2.24   0.00   1.49   3.98   3.98   3.98   3.98   3.65   2.27   0.68   0.43   0.00   0.00      0      0      0       0     996
 2011 258   135   135   23.0      5   1.93   4482   3241  13154   2816  24133   4487  293.2  0.545  16411      7  0.000  0.000  0.618  0.000   0.55  80.15   0.68      0  16411     43.0   2.23   0.00   1.49   3.98   3.98   3.98   3.98   3.65   2.27   0.68   0.43   0.00   0.00      0      0      0       0    1010

*DSSAT Cropping System Model Ver. 4.0.2.000               Feb 23, 2021; 08:32:38

*RUN   3        :C:\SCENARIOS 02042021\FULLX200A\                                                
 MODEL          : MZCER040 - Maize           
 EXPERIMENT     : EXPDSSAT MZ    RZWQM2-NOT SPECIFIED                           
 TREATMENT  4   :C:\SCENARIOS 02042021\FULLX200A\                                                

@YEAR DOY   DAS   DAP   L#SD   GSTD   LAID   LWAD   SWAD   GWAD   RWAD   CWAD   G#AD   GWGD   HIAD   PWAD   P#AD   WSPD   WSGD   NSTD   EWSD   LN%D   SH%D   HIPD   PWDD   PWTD     SLAD   CHTD   CWID   RDPD   RL1D   RL2D   RL3D   RL4D   RL5D   RL6D   RL7D   RL8D   RL9D   RL10   CDAD   LDAD   SDAD   SNW0C   SNW1C
 2012 115     0     0    0.0      0   0.00      0      0      0      0      0      0    0.0  0.000      0      0  0.000  0.000  0.000  0.000   0.00   0.00   0.00      0      0      0.0   0.00   0.00   0.05   0.00   0.00   0.00   0.00   0.00   0.00   0.00   0.00   0.00   0.00      0      0      0       0       0
 2012 125    10    10    2.0      1   0.01     17     17      0     17     34      0    0.0  0.000      0      0  0.000  0.000  0.012  0.000   4.40   0.00   0.00      0      0     31.6   0.00   0.00   0.20   0.34   0.17   0.02   0.00   0.00   0.00   0.00   0.00   0.00   0.00      0      0      0       0       0
 2012 135    20    20    5.0      1   0.10     33     17      0     50     50      0    0.0  0.000      0      0  0.000  0.000  0.000  0.000   3.46   0.00   0.00      0      0    295.4   0.02   0.00   0.29   0.62   0.46   0.16   0.00   0.00   0.00   0.00   0.00   0.00   0.00      0      0      0       0       1
 2012 145    30    30    8.0      2   0.62    307     17      0    291    323      0    0.0  0.000      0      0  0.000  0.000  0.000  0.008   3.31   0.00   0.00      0      0    202.3   0.13   0.00   0.48   2.36   2.20   0.93   0.29   0.01   0.00   0.00   0.00   0.00   0.00      0      0      0       0       7
 2012 155    40    40   11.0      3   1.47    935     22      0    846    957      0    0.0  0.000      0      0  0.000  0.000  0.022  0.066   3.48   0.00   0.00      0      0    157.6   0.36   0.00   0.67   4.00   4.00   2.87   1.05   0.64   0.01   0.00   0.00   0.00   0.00      0      0      0       0      33
 2012 165    50    50   15.0      3   3.16   2414    370      0   1769   2784      0    0.0  0.000      0      0  0.000  0.000  0.022  0.000   3.06   0.00   0.00      0      0    130.9   0.92   0.00   0.92   4.00   4.00   4.00   2.31   1.78   0.23   0.00   0.00   0.00   0.00      0      0      0       0      96
 2012 175    60    60   19.0      3   4.94   4280   2040      0   2210   6320      0    0.0  0.000      0      0  0.000  0.000  0.022  0.000   2.67   0.00   0.00      0      0    115.3   1.65   0.00   1.06   4.00   4.00   4.00   2.76   2.20   0.29   0.00   0.00   0.00   0.00      0      0      0       0     195
 2012 185    70    70   22.0      3   5.54   5513   4953      0   2404  10465      0    0.0  0.000      0      0  0.182  0.455  0.028  0.000   1.98   0.00   0.00      0      0    100.5   2.10   0.00   1.23   4.00   4.00   4.00   3.03   2.50   0.61   0.10   0.00   0.00   0.00      0      0      0       0     309
 2012 195    80    80   22.0      4   4.98   4768   5185      0   2840  13429      0    0.0  0.000   3476      0  0.000  0.000  0.022  0.000   2.09   0.00   0.26      0   3476    104.4   2.25   0.00   1.34   4.00   4.00   4.00   3.96   3.46   1.50   0.37   0.05   0.00   0.00      0      0      0       0     383
 2012 205    90    90   22.0      5   4.66   4670   5311   2711   3280  16482   4936   54.9  0.164   6502      8  0.000  0.000  0.000  0.000   1.60  41.69   0.39      0   6502     99.8   2.27   0.00   1.47   4.00   4.00   4.00   4.00   4.00   2.34   0.63   0.16   0.00   0.00      0      0      0       0     492
 2012 215   100   100   22.0      5   4.36   4670   5311   5681   3538  19452   4936  115.1  0.292   9471      8  0.000  0.000  0.082  0.000   1.13  59.98   0.49      0   9471     93.4   2.27   0.00   1.49   4.00   4.00   4.00   4.00   4.00   2.89   0.80   0.26   0.00   0.00      0      0      0       0     662
 2012 225   110   110   22.0      5   3.61   4670   5297   8693   3579  22450   4936  176.1  0.387  12483      8  0.000  0.000  0.223  0.000   0.79  69.63   0.56      0  12483     77.2   2.27   0.00   1.49   4.00   4.00   4.00   4.00   4.00   3.11   0.87   0.30   0.00   0.00      0      0      0       0     841
 2012 235   120   120   22.0      5   2.56   4670   4619  11705   3409  24784   4936  237.1  0.472  15495      8  0.000  0.000  0.532  0.000   0.60  75.54   0.63      0  15495     54.8   2.25   0.00   1.49   3.99   3.99   3.99   3.99   3.99   3.10   0.87   0.30   0.00   0.00      0      0      0       0    1016
 2012 245   130   130   22.0      5   1.99   4670   3507  13347   3308  25314   4936  270.4  0.527  17138      8  0.000  0.000  0.600  0.000   0.56  77.88   0.68      0  17138     42.7   2.20   0.00   1.49   3.99   3.99   3.99   3.99   3.99   3.10   0.87   0.30   0.00   0.00      0      0      0       0    1117

*DSSAT Cropping System Model Ver. 4.0.2.000               Feb 23, 2021; 08:35:06

*RUN   4        :C:\SCENARIOS 02042021\FULLX200A\                                                
 MODEL          : MZCER040 - Maize           
 EXPERIMENT     : EXPDSSAT MZ    RZWQM2-NOT SPECIFIED                           
 TREATMENT  4   :C:\SCENARIOS 02042021\FULLX200A\                                                

@YEAR DOY   DAS   DAP   L#SD   GSTD   LAID   LWAD   SWAD   GWAD   RWAD   CWAD   G#AD   GWGD   HIAD   PWAD   P#AD   WSPD   WSGD   NSTD   EWSD   LN%D   SH%D   HIPD   PWDD   PWTD     SLAD   CHTD   CWID   RDPD   RL1D   RL2D   RL3D   RL4D   RL5D   RL6D   RL7D   RL8D   RL9D   RL10   CDAD   LDAD   SDAD   SNW0C   SNW1C
 2013 136     0     0    0.0      0   0.00      0      0      0      0      0      0    0.0  0.000      0      0  0.000  0.000  0.000  0.000   0.00   0.00   0.00      0      0      0.0   0.00   0.00   0.05   0.00   0.00   0.00   0.00   0.00   0.00   0.00   0.00   0.00   0.00      0      0      0       0       0
 2013 146    10    10    2.0      1   0.01     17     17      0     17     34      0    0.0  0.000      0      0  0.000  0.000  0.012  0.000   4.50   0.00   0.00      0      0     56.1   0.02   0.00   0.20   0.34   0.17   0.02   0.00   0.00   0.00   0.00   0.00   0.00   0.00      0      0      0       0       0
 2013 156    20    20    5.0      1   0.16     59     17      0     65     76      0    0.0  0.000      0      0  0.000  0.000  0.000  0.000   3.60   0.00   0.00      0      0    266.2   0.03   0.00   0.31   0.57   0.56   0.30   0.00   0.00   0.00   0.00   0.00   0.00   0.00      0      0      0       0       1
 2013 166    30    30    9.0      2   0.85    454     17      0    317    471      0    0.0  0.000      0      0  0.000  0.000  0.000  0.020   3.79   0.00   0.00      0      0    186.5   0.18   0.00   0.52   2.59   2.23   0.67   0.52   0.05   0.00   0.00   0.00   0.00   0.00      0      0      0       0      10
 2013 176    40    40   14.0      3   2.66   1921    153      0    900   2074      0    0.0  0.000      0      0  0.000  0.000  0.022  0.000   3.23   0.00   0.00      0      0    138.7   0.72   0.00   0.82   4.00   4.00   0.86   1.27   0.92   0.26   0.00   0.00   0.00   0.00      0      0      0       0      39
 2013 186    50    50   18.0      3   4.33   3576   1191      0   1852   4767      0    0.0  0.000      0      0  0.000  0.000  0.022  0.000   2.84   0.00   0.00      0      0    121.2   1.38   0.00   1.00   4.00   4.00   0.97   2.02   1.69   1.25   0.03   0.00   0.00   0.00      0      0      0       0     107
 2013 196    60    60   22.0      3   5.37   5054   3789      0   2064   8843      0    0.0  0.000      0      0  0.000  0.000  0.022  0.000   2.28   0.00   0.00      0      0    106.3   1.96   0.00   1.16   4.00   4.00   1.25   2.09   1.78   1.33   0.26   0.00   0.00   0.00      0      0      0       0     203
 2013 206    70    70   23.0      4   5.13   5124   4532      0   2488  11570      0    0.0  0.000   1913      0  0.000  0.000  0.022  0.000   2.13   0.00   0.17      0   1913    100.1   2.17   0.00   1.29   4.00   4.00   2.34   2.99   2.70   2.12   0.61   0.01   0.00   0.00      0      0      0       0     318
 2013 216    80    80   23.0      5   4.75   4466   5082    458   2749  13292   3751   12.2  0.034   3745      8  0.000  0.000  0.000  0.000   2.06  12.22   0.28      0   3745    106.4   2.24   0.00   1.37   4.00   4.00   3.08   3.60   3.31   2.64   0.77   0.05   0.00   0.00      0      0      0       0     343
 2013 226    90    90   23.0      5   4.52   4466   5082   2746   2971  15581   3751   73.2  0.176   6033      8  0.000  0.000  0.000  0.000   1.64  45.52   0.39      0   6033    101.1   2.24   0.00   1.45   3.96   3.96   3.72   3.96   3.85   3.11   0.91   0.12   0.00   0.00      0      0      0       0     417
 2013 236   100   100   23.0      5   4.33   4466   5082   5035   3216  17870   3751  134.2  0.282   8322      8  0.000  0.000  0.047  0.000   1.27  60.50   0.47      0   8322     96.9   2.24   0.00   1.49   4.00   4.00   4.00   4.00   4.00   3.59   1.07   0.21   0.00   0.00      0      0      0       0     570
 2013 246   110   110   23.0      5   3.89   4466   5082   7324   3501  20159   3751  195.3  0.363  10611      8  0.000  0.314  0.127  0.000   0.94  69.02   0.53      0  10611     87.1   2.24   0.00   1.49   4.00   4.00   4.00   4.00   4.00   4.00   1.23   0.32   0.00   0.00      0      0      0       0     738
 2013 256   120   120   23.0      5   3.10   4466   5070   9613   3448  22436   3751  256.3  0.428  12900      8  0.000  0.000  0.275  0.000   0.68  74.52   0.57      0  12900     69.4   2.24   0.00   1.49   3.99   3.99   3.99   3.99   3.99   3.98   1.24   0.33   0.00   0.00      0      0      0       0     912
 2013 266   130   130   23.0      5   2.46   4466   4259  11160   3329  23172   3751  297.5  0.482  14447      8  0.000  0.000  0.434  0.000   0.60  77.25   0.62      0  14447     55.2   2.20   0.00   1.49   3.99   3.99   3.99   3.99   3.99   3.98   1.24   0.33   0.00   0.00      0      0      0       0    1031
 2013 269   133   133   23.0      5   2.46   4466   4259  11160   3329  23172   3751  297.5  0.482  14447      8  0.000  0.000  0.434  0.000   0.60  77.25   0.62      0  14447     55.2   2.20   0.00   1.49   3.99   3.99   3.99   3.99   3.99   3.98   1.24   0.33   0.00   0.00      0      0      0       0    1031

*DSSAT Cropping System Model Ver. 4.0.2.000               Feb 23, 2021; 08:37:48

*RUN   5        :C:\SCENARIOS 02042021\FULLX200A\                                                
 MODEL          : MZCER040 - Maize           
 EXPERIMENT     : EXPDSSAT MZ    RZWQM2-NOT SPECIFIED                           
 TREATMENT  4   :C:\SCENARIOS 02042021\FULLX200A\                                                

@YEAR DOY   DAS   DAP   L#SD   GSTD   LAID   LWAD   SWAD   GWAD   RWAD   CWAD   G#AD   GWGD   HIAD   PWAD   P#AD   WSPD   WSGD   NSTD   EWSD   LN%D   SH%D   HIPD   PWDD   PWTD     SLAD   CHTD   CWID   RDPD   RL1D   RL2D   RL3D   RL4D   RL5D   RL6D   RL7D   RL8D   RL9D   RL10   CDAD   LDAD   SDAD   SNW0C   SNW1C
 2014 122     0     0    0.0      0   0.00      0      0      0      0      0      0    0.0  0.000      0      0  0.000  0.000  0.000  0.000   0.00   0.00   0.00      0      0      0.0   0.00   0.00   0.05   0.00   0.00   0.00   0.00   0.00   0.00   0.00   0.00   0.00   0.00      0      0      0       0       0
 2014 132    10    10    1.0      1   0.00     17     17      0     17     34      0    0.0  0.000      0      0  0.000  0.000  0.019  0.000   4.56   0.00   0.00      0      0     13.3   0.02   0.00   0.18   0.34   0.17   0.02   0.00   0.00   0.00   0.00   0.00   0.00   0.00      0      0      0       0       0
 2014 142    20    20    4.0      1   0.05     17     17      0     26     34      0    0.0  0.000      0      0  0.000  0.000  0.000  0.000   4.29   0.00   0.00      0      0    299.2   0.02   0.00   0.26   0.36   0.23   0.07   0.00   0.00   0.00   0.00   0.00   0.00   0.00      0      0      0       0       0
 2014 152    30    30    8.0      2   0.56    271     17      0    184    288      0    0.0  0.000      0      0  0.000  0.000  0.000  0.083   3.26   0.00   0.00      0      0    208.0   0.11   0.00   0.45   1.05   1.19   0.70   0.27   0.00   0.00   0.00   0.00   0.00   0.00      0      0      0       0       4
 2014 162    40    40   11.0      3   1.36    852     27      0    811    879      0    0.0  0.000      0      0  0.000  0.000  0.022  0.173   3.44   0.00   0.00      0      0    160.0   0.34   0.00   0.67   4.00   2.56   1.23   1.14   1.13   0.13   0.00   0.00   0.00   0.00      0      0      0       0      25
 2014 172    50    50   15.0      3   3.08   2336    488      0   1666   2823      0    0.0  0.000      0      0  0.000  0.000  0.022  0.125   3.01   0.00   0.00      0      0    132.0   0.95   0.00   0.92   4.00   4.00   1.44   0.94   0.92   0.20   0.00   0.00   0.00   0.00      0      0      0       0      88
 2014 182    60    60   19.0      3   4.52   3811   1881      0   1994   5692      0    0.0  0.000      0      0  0.000  0.000  0.022  0.063   2.65   0.00   0.00      0      0    118.5   1.56   0.00   1.05   4.00   4.00   3.47   1.21   0.89   0.20   0.00   0.00   0.00   0.00      0      0      0       0     180
 2014 192    70    70   22.0      3   5.16   4819   4300      0   2436   9119      0    0.0  0.000      0      0  0.000  0.000  0.028  0.000   2.02   0.00   0.00      0      0    107.1   1.98   0.00   1.18   4.00   4.00   4.00   1.78   1.44   0.69   0.22   0.00   0.00   0.00      0      0      0       0     291
 2014 202    80    80   22.0      4   4.98   4788   4843      0   3023  11727      0    0.0  0.000   2097      0  0.000  0.000  0.027  0.000   1.94   0.00   0.18      0   2097    104.0   2.17   0.00   1.28   4.00   4.00   4.00   3.10   2.77   1.84   0.58   0.01   0.00   0.00      0      0      0       0     429
 2014 212    90    90   22.0      5   4.66   4378   5424   1336   3366  14689   4378   30.5  0.091   4887      8  0.000  0.000  0.018  0.000   1.69  27.33   0.33      0   4887    106.5   2.25   0.00   1.38   4.00   4.00   4.00   3.90   3.59   2.55   0.79   0.08   0.00   0.00      0      0      0       0     588
 2014 222   100   100   22.0      5   4.34   4378   5424   4007   3591  17361   4378   91.5  0.231   7558      8  0.000  0.000  0.084  0.000   1.29  53.02   0.44      0   7558     99.2   2.25   0.00   1.47   4.00   4.00   4.00   4.00   4.00   3.07   0.95   0.15   0.00   0.00      0      0      0       0     763
 2014 232   110   110   22.0      5   3.68   4378   5424   6679   3732  20032   4378  152.6  0.333  10230      8  0.000  0.000  0.168  0.000   0.95  65.29   0.51      0  10230     84.1   2.25   0.00   1.49   4.00   4.00   4.00   4.00   4.00   3.45   1.06   0.23   0.00   0.00      0      0      0       0     947
 2014 242   120   120   22.0      5   2.80   4378   5032   9350   3604  22311   4378  213.6  0.419  12901      8  0.000  0.000  0.351  0.157   0.71  72.48   0.58      0  12901     64.0   2.24   0.00   1.49   3.96   3.96   3.96   3.95   3.95   3.43   1.06   0.23   0.00   0.00      0      0      0       0    1131
 2014 252   130   130   22.0      5   1.93   4378   3970  11952   3428  23851   4378  273.0  0.501  15503      8  0.000  0.000  0.566  0.000   0.58  77.09   0.65      0  15503     44.2   2.20   0.00   1.49   3.96   3.96   3.96   3.95   3.95   3.43   1.06   0.23   0.00   0.00      0      0      0       0    1308
 2014 262   140   140   22.0      5   0.65   4378   3700  12803   3272  24432   4378  292.4  0.524  16354      8  0.000  0.000  0.624  0.041   0.53  78.29   0.67      0  16354     14.8   2.18   0.00   1.49   3.94   3.94   3.94   3.94   3.94   3.42   1.05   0.23   0.00   0.00      0      0      0       0    1476
 2014 270   148   148   22.0      5   0.57   4378   3700  12946   3224  24575   4378  295.7  0.527  16497      8  0.000  0.000  0.635  0.018   0.53  78.47   0.67      0  16497     13.0   2.18   0.00   1.49   3.94   3.94   3.94   3.94   3.94   3.42   1.05   0.23   0.00   0.00      0      0      0       0    1524

*DSSAT Cropping System Model Ver. 4.0.2.000               Feb 23, 2021; 08:40:03

*RUN   6        :C:\SCENARIOS 02042021\FULLX200A\                                                
 MODEL          : MZCER040 - Maize           
 EXPERIMENT     : EXPDSSAT MZ    RZWQM2-NOT SPECIFIED                           
 TREATMENT  4   :C:\SCENARIOS 02042021\FULLX200A\                                                

@YEAR DOY   DAS   DAP   L#SD   GSTD   LAID   LWAD   SWAD   GWAD   RWAD   CWAD   G#AD   GWGD   HIAD   PWAD   P#AD   WSPD   WSGD   NSTD   EWSD   LN%D   SH%D   HIPD   PWDD   PWTD     SLAD   CHTD   CWID   RDPD   RL1D   RL2D   RL3D   RL4D   RL5D   RL6D   RL7D   RL8D   RL9D   RL10   CDAD   LDAD   SDAD   SNW0C   SNW1C
 2015 121     0     0    0.0      0   0.00      0      0      0      0      0      0    0.0  0.000      0      0  0.000  0.000  0.000  0.000   0.00   0.00   0.00      0      0      0.0   0.00   0.00   0.05   0.00   0.00   0.00   0.00   0.00   0.00   0.00   0.00   0.00   0.00      0      0      0       0       0
 2015 131    10    10    0.0      0   0.00      0      0      0      0      0      0    0.0  0.000      0      0  0.000  0.000  0.000  0.000   0.00   0.00   0.00      0      0      0.0   0.00   0.00   0.17   0.00   0.00   0.00   0.00   0.00   0.00   0.00   0.00   0.00   0.00      0      0      0       0       0
 2015 141    20    20    3.0      1   0.02     17     17      0     24     34      0    0.0  0.000      0      0  0.000  0.000  0.000  0.000   4.37   0.00   0.00      0      0    101.3   0.02   0.00   0.24   0.38   0.24   0.05   0.00   0.00   0.00   0.00   0.00   0.00   0.00      0      0      0       0       0
 2015 151    30    30    6.0      1   0.18     69     17      0     88     86      0    0.0  0.000      0      0  0.000  0.000  0.000  0.001   3.61   0.00   0.00      0      0    257.6   0.04   0.00   0.33   0.83   0.73   0.32   0.01   0.00   0.00   0.00   0.00   0.00   0.00      0      0      0       0       2
 2015 161    40    40   10.0      2   0.89    482     17      0    422    499      0    0.0  0.000      0      0  0.000  0.000  0.000  0.344   3.04   0.00   0.00      0      0    184.3   0.19   0.00   0.56   0.80   0.91   1.08   1.16   0.92   0.00   0.00   0.00   0.00   0.00      0      0      0       0      11
 2015 171    50    50   13.0      3   1.86   1278     70      0    909   1348      0    0.0  0.000      0      0  0.000  0.000  0.094  0.269   1.84   0.00   0.00      0      0    145.6   0.50   0.00   0.78   1.67   1.74   1.79   1.69   1.62   0.57   0.00   0.00   0.00   0.00      0      0      0       0      40
