*SOIL CARBON DAILY OUTPUT FILE

*DSSAT Cropping System Model Ver. 4.0.2.000               Feb 23, 2021; 08:27:48

*RUN   1        :C:\SCENARIOS 02042021\FULLX200A\                                                
 MODEL          : MZCER040 - Maize           
 EXPERIMENT     : EXPDSSAT MZ    RZWQM2-NOT SPECIFIED                           
 TREATMENT  4   :C:\SCENARIOS 02042021\FULLX200A\                                                

@YEAR DOY   DAS    SOCD   OMAC   TFOM   HUM1   HUM2   HUM3   HUM4  HUM5    HUM6   HUM7   HUM8   HUM9 HUM10 HUM11 HUM12 HUM13 HUM14 HUM15  TFON  NHU1  NHU2  NHU3  NHU4  NHU5  NHU6  NHU7  NHU8  NHU9 NHU10 NHU11 NHU12 NHU13 NHU14 NHU15  SNDD  SCDD
 2010 111   110  111564   2561      0  10320  20933  19155  15143  15143  13503  10095   7271      0     0     0     0     0     0     0     0   969  1965  1797  1421  1421  1267   948   682     0     0     0     0     0     0     0  1210 12895
 2010 121   120  109769   2561      0   9775  19691  19150  15143  15142  13503  10094   7271      0     0     0     0     0     0     0     0   918  1849  1797  1421  1421  1267   947   682     0     0     0     0     0     0     0  1201 12792
 2010 131   130  108571   2561      0   9359  18915  19146  15142  15142  13502  10094   7271      0     0     0     0     0     0     0     0   879  1775  1796  1421  1421  1267   947   682     0     0     0     0     0     0     0  1194 12726
 2010 141   140  107699   2561      0   9058  18349  19142  15142  15141  13502  10094   7270      0     0     0     0     0     0     0     0   850  1722  1796  1421  1421  1267   947   682     0     0     0     0     0     0     0  1190 12677
 2010 151   150  107434   2561      0   8969  18179  19136  15142  15141  13502  10094   7270      0     0     0     0     0     0     0     0   842  1706  1795  1421  1421  1267   947   682     0     0     0     0     0     0     0  1188 12662
 2010 161   160  107360   2561      0   8948  18136  19128  15142  15141  13502  10094   7270      0     0     0     0     0     0     0     0   840  1702  1794  1421  1421  1267   947   682     0     0     0     0     0     0     0  1188 12657
 2010 171   170  107283   2561      0   8925  18090  19120  15141  15141  13502  10094   7270      0     0     0     0     0     0     0     0   837  1697  1793  1421  1421  1267   947   682     0     0     0     0     0     0     0  1187 12653
 2010 181   180  107251   2561      0   8919  18074  19112  15141  15141  13502  10094   7270      0     0     0     0     0     0     0     0   837  1695  1792  1421  1421  1267   947   682     0     0     0     0     0     0     0  1187 12650
 2010 191   190  107228   2561      0   8915  18063  19105  15141  15140  13501  10094   7270      0     0     0     0     0     0     0     0   836  1694  1791  1421  1421  1267   947   682     0     0     0     0     0     0     0  1187 12649
 2010 201   200  107201   2561      0   8911  18050  19095  15140  15140  13501  10093   7269      0     0     0     0     0     0     0     0   835  1692  1790  1421  1421  1267   947   682     0     0     0     0     0     0     0  1187 12647
 2010 211   210  107166   2561      0   8905  18032  19087  15139  15139  13501  10093   7269      0     0     0     0     0     0     0     0   835  1690  1789  1421  1421  1267   947   682     0     0     0     0     0     0     0  1186 12644
 2010 221   220  107133   2561      0   8900  18020  19078  15137  15137  13500  10093   7269      0     0     0     0     0     0     0     0   834  1688  1788  1421  1421  1267   947   682     0     0     0     0     0     0     0  1186 12641
 2010 231   230  107101   2561      0   8895  18006  19070  15135  15134  13499  10093   7269      0     0     0     0     0     0     0     0   833  1687  1787  1420  1420  1267   947   682     0     0     0     0     0     0     0  1186 12639
 2010 241   240  107075   2561      0   8891  17997  19061  15133  15133  13498  10092   7269      0     0     0     0     0     0     0     0   833  1686  1786  1420  1420  1267   947   682     0     0     0     0     0     0     0  1185 12637
 2010 251   250  107047   2561      0   8886  17983  19054  15133  15133  13498  10092   7268      0     0     0     0     0     0     0     0   832  1684  1785  1420  1420  1267   947   682     0     0     0     0     0     0     0  1185 12634

*DSSAT Cropping System Model Ver. 4.0.2.000               Feb 23, 2021; 08:30:36

*RUN   2        :C:\SCENARIOS 02042021\FULLX200A\                                                
 MODEL          : MZCER040 - Maize           
 EXPERIMENT     : EXPDSSAT MZ    RZWQM2-NOT SPECIFIED                           
 TREATMENT  4   :C:\SCENARIOS 02042021\FULLX200A\                                                

@YEAR DOY   DAS    SOCD   OMAC   TFOM   HUM1   HUM2   HUM3   HUM4  HUM5    HUM6   HUM7   HUM8   HUM9 HUM10 HUM11 HUM12 HUM13 HUM14 HUM15  TFON  NHU1  NHU2  NHU3  NHU4  NHU5  NHU6  NHU7  NHU8  NHU9 NHU10 NHU11 NHU12 NHU13 NHU14 NHU15  SNDD  SCDD
 2011 123     0  110730    821      0  10076  20520  19015  15129  15129  13499  10093   7268      0     0     0     0     0     0     0     0   943  1919  1780  1419  1419  1267   947   682     0     0     0     0     0     0     0  1204 12840
 2011 133    10  111624    821      0  10467  21027  19011  15129  15129  13499  10093   7268      0     0     0     0     0     0     0     0   979  1967  1779  1419  1419  1267   947   682     0     0     0     0     0     0     0  1208 12887
 2011 143    20  110969    821      0  10175  20668  19008  15129  15129  13499  10093   7268      0     0     0     0     0     0     0     0   952  1933  1779  1419  1419  1267   947   682     0     0     0     0     0     0     0  1205 12853
 2011 153    30  110755    821      0  10081  20552  19004  15129  15129  13499  10093   7268      0     0     0     0     0     0     0     0   943  1922  1778  1419  1419  1267   947   682     0     0     0     0     0     0     0  1204 12841
 2011 163    40  110725    821      0  10073  20537  18997  15129  15129  13499  10093   7268      0     0     0     0     0     0     0     0   942  1920  1778  1419  1419  1267   947   682     0     0     0     0     0     0     0  1204 12840
 2011 173    50  110676    821      0  10057  20512  18990  15129  15128  13499  10093   7268      0     0     0     0     0     0     0     0   940  1917  1777  1419  1419  1267   947   682     0     0     0     0     0     0     0  1203 12837
 2011 183    60  110641    821      0  10047  20495  18983  15128  15128  13499  10093   7268      0     0     0     0     0     0     0     0   939  1916  1776  1419  1419  1267   947   682     0     0     0     0     0     0     0  1203 12834
 2011 193    70  110609    821      0  10038  20479  18976  15128  15128  13499  10093   7268      0     0     0     0     0     0     0     0   938  1914  1775  1419  1419  1267   947   682     0     0     0     0     0     0     0  1203 12832
 2011 203    80  110575    821      0  10031  20461  18969  15128  15128  13499  10093   7268      0     0     0     0     0     0     0     0   937  1912  1774  1419  1419  1267   947   682     0     0     0     0     0     0     0  1203 12830
 2011 213    90  110549    821      0  10024  20448  18963  15127  15127  13499  10093   7268      0     0     0     0     0     0     0     0   936  1910  1773  1419  1419  1267   947   682     0     0     0     0     0     0     0  1202 12828
 2011 223   100  110523    821      0  10019  20437  18956  15125  15126  13499  10093   7268      0     0     0     0     0     0     0     0   936  1909  1773  1419  1419  1267   947   682     0     0     0     0     0     0     0  1202 12826
 2011 233   110  110499    821      0  10014  20427  18949  15125  15125  13499  10093   7268      0     0     0     0     0     0     0     0   935  1908  1772  1419  1419  1267   947   682     0     0     0     0     0     0     0  1202 12824
 2011 243   120  110473    821      0  10009  20415  18942  15124  15123  13499  10093   7267      0     0     0     0     0     0     0     0   934  1906  1771  1419  1419  1267   947   682     0     0     0     0     0     0     0  1202 12823
 2011 253   130  110452    821      0  10005  20406  18935  15124  15123  13499  10093   7267      0     0     0     0     0     0     0     0   934  1905  1770  1419  1419  1267   947   682     0     0     0     0     0     0     0  1201 12821

*DSSAT Cropping System Model Ver. 4.0.2.000               Feb 23, 2021; 08:32:38

*RUN   3        :C:\SCENARIOS 02042021\FULLX200A\                                                
 MODEL          : MZCER040 - Maize           
 EXPERIMENT     : EXPDSSAT MZ    RZWQM2-NOT SPECIFIED                           
 TREATMENT  4   :C:\SCENARIOS 02042021\FULLX200A\                                                

@YEAR DOY   DAS    SOCD   OMAC   TFOM   HUM1   HUM2   HUM3   HUM4  HUM5    HUM6   HUM7   HUM8   HUM9 HUM10 HUM11 HUM12 HUM13 HUM14 HUM15  TFON  NHU1  NHU2  NHU3  NHU4  NHU5  NHU6  NHU7  NHU8  NHU9 NHU10 NHU11 NHU12 NHU13 NHU14 NHU15  SNDD  SCDD
 2012 115     0  110315    262      0   9974  20339  18899  15122  15120  13502  10093   7267      0     0     0     0     0     0     0     0   930  1896  1765  1418  1418  1267   947   682     0     0     0     0     0     0     0  1200 12812
 2012 125    10  110477    262      0  10045  20432  18895  15122  15120  13502  10093   7267      0     0     0     0     0     0     0     0   937  1905  1765  1418  1418  1267   947   682     0     0     0     0     0     0     0  1201 12820
 2012 135    20  110455    262      0  10038  20422  18891  15122  15120  13502  10093   7267      0     0     0     0     0     0     0     0   936  1904  1764  1418  1418  1267   947   682     0     0     0     0     0     0     0  1201 12819
 2012 145    30  110416    262      0  10025  20401  18886  15122  15120  13502  10093   7267      0     0     0     0     0     0     0     0   935  1902  1764  1418  1418  1267   947   682     0     0     0     0     0     0     0  1201 12816
 2012 155    40  110311    262      0   9981  20345  18881  15122  15120  13502  10093   7267      0     0     0     0     0     0     0     0   930  1897  1763  1418  1418  1267   947   682     0     0     0     0     0     0     0  1200 12811
 2012 165    50  110287    262      0   9976  20333  18875  15121  15120  13502  10093   7267      0     0     0     0     0     0     0     0   930  1895  1762  1418  1418  1267   947   682     0     0     0     0     0     0     0  1200 12809
 2012 175    60  110228    262      0   9954  20302  18869  15121  15120  13502  10093   7267      0     0     0     0     0     0     0     0   928  1892  1762  1418  1418  1267   947   682     0     0     0     0     0     0     0  1199 12806
 2012 185    70  110196    262      0   9946  20286  18863  15121  15119  13502  10093   7267      0     0     0     0     0     0     0     0   927  1890  1761  1418  1418  1267   947   682     0     0     0     0     0     0     0  1199 12803
 2012 195    80  110167    262      0   9938  20271  18859  15119  15118  13502  10093   7267      0     0     0     0     0     0     0     0   926  1889  1760  1418  1418  1267   947   682     0     0     0     0     0     0     0  1199 12802
 2012 205    90  110137    262      0   9931  20256  18853  15118  15117  13502  10093   7267      0     0     0     0     0     0     0     0   925  1887  1760  1418  1417  1267   947   682     0     0     0     0     0     0     0  1199 12799
 2012 215   100  110114    262      0   9927  20245  18849  15116  15115  13502  10093   7267      0     0     0     0     0     0     0     0   924  1886  1759  1417  1417  1267   947   682     0     0     0     0     0     0     0  1198 12798
 2012 225   110  110090    262      0   9922  20235  18842  15116  15114  13502  10093   7266      0     0     0     0     0     0     0     0   924  1884  1758  1417  1417  1267   947   682     0     0     0     0     0     0     0  1198 12796
 2012 235   120  110068    262      0   9917  20225  18836  15115  15113  13502  10093   7266      0     0     0     0     0     0     0     0   923  1883  1758  1417  1417  1267   947   682     0     0     0     0     0     0     0  1198 12794
 2012 245   130  110043    262      0   9912  20214  18829  15115  15112  13502  10093   7266      0     0     0     0     0     0     0     0   923  1882  1757  1417  1417  1267   947   682     0     0     0     0     0     0     0  1198 12793

*DSSAT Cropping System Model Ver. 4.0.2.000               Feb 23, 2021; 08:35:06

*RUN   4        :C:\SCENARIOS 02042021\FULLX200A\                                                
 MODEL          : MZCER040 - Maize           
 EXPERIMENT     : EXPDSSAT MZ    RZWQM2-NOT SPECIFIED                           
 TREATMENT  4   :C:\SCENARIOS 02042021\FULLX200A\                                                

@YEAR DOY   DAS    SOCD   OMAC   TFOM   HUM1   HUM2   HUM3   HUM4  HUM5    HUM6   HUM7   HUM8   HUM9 HUM10 HUM11 HUM12 HUM13 HUM14 HUM15  TFON  NHU1  NHU2  NHU3  NHU4  NHU5  NHU6  NHU7  NHU8  NHU9 NHU10 NHU11 NHU12 NHU13 NHU14 NHU15  SNDD  SCDD
 2013 136     0  109915     91      0   9882  20150  18797  15111  15108  13508  10094   7266      0     0     0     0     0     0     0     0   919  1874  1753  1416  1416  1267   947   682     0     0     0     0     0     0     0  1197 12785
 2013 146    10  110072     91      0   9952  20240  18793  15112  15108  13508  10094   7266      0     0     0     0     0     0     0     0   926  1883  1752  1416  1416  1267   947   682     0     0     0     0     0     0     0  1197 12793
 2013 156    20  109907     91      0   9880  20151  18790  15112  15108  13508  10094   7266      0     0     0     0     0     0     0     0   919  1874  1752  1416  1416  1267   947   682     0     0     0     0     0     0     0  1197 12784
 2013 166    30  109889     91      0   9876  20142  18785  15111  15107  13508  10094   7266      0     0     0     0     0     0     0     0   918  1873  1751  1416  1416  1267   947   682     0     0     0     0     0     0     0  1196 12783
 2013 176    40  109861     91      0   9869  20128  18778  15111  15107  13508  10094   7265      0     0     0     0     0     0     0     0   918  1872  1750  1416  1416  1267   947   682     0     0     0     0     0     0     0  1196 12781
 2013 186    50  109842     91      0   9865  20118  18773  15111  15107  13508  10094   7265      0     0     0     0     0     0     0     0   917  1870  1750  1416  1416  1267   947   682     0     0     0     0     0     0     0  1196 12779
 2013 196    60  109815     91      0   9858  20105  18768  15110  15106  13508  10094   7265      0     0     0     0     0     0     0     0   916  1869  1749  1416  1416  1267   947   682     0     0     0     0     0     0     0  1196 12778
 2013 206    70  109795     91      0   9853  20096  18764  15109  15105  13508  10094   7265      0     0     0     0     0     0     0     0   916  1868  1749  1416  1416  1267   947   682     0     0     0     0     0     0     0  1196 12776
 2013 216    80  109777     91      0   9849  20089  18760  15108  15104  13508  10094   7265      0     0     0     0     0     0     0     0   915  1867  1748  1416  1415  1267   947   682     0     0     0     0     0     0     0  1195 12775
 2013 226    90  109755     91      0   9845  20079  18754  15107  15103  13508  10094   7265      0     0     0     0     0     0     0     0   915  1866  1747  1416  1415  1267   947   682     0     0     0     0     0     0     0  1195 12773
 2013 236   100  109733     91      0   9840  20070  18748  15106  15101  13508  10094   7265      0     0     0     0     0     0     0     0   914  1865  1747  1416  1415  1267   947   682     0     0     0     0     0     0     0  1195 12772
 2013 246   110  109711     91      0   9836  20059  18745  15105  15100  13508  10094   7265      0     0     0     0     0     0     0     0   914  1864  1746  1415  1415  1267   947   682     0     0     0     0     0     0     0  1195 12770
 2013 256   120  109688     91      0   9831  20048  18742  15103  15098  13508  10094   7265      0     0     0     0     0     0     0     0   913  1862  1746  1415  1415  1267   947   682     0     0     0     0     0     0     0  1195 12769
 2013 266   130  109671     91      0   9827  20040  18740  15102  15096  13508  10094   7265      0     0     0     0     0     0     0     0   913  1861  1746  1415  1414  1267   947   682     0     0     0     0     0     0     0  1194 12767

*DSSAT Cropping System Model Ver. 4.0.2.000               Feb 23, 2021; 08:37:48

*RUN   5        :C:\SCENARIOS 02042021\FULLX200A\                                                
 MODEL          : MZCER040 - Maize           
 EXPERIMENT     : EXPDSSAT MZ    RZWQM2-NOT SPECIFIED                           
 TREATMENT  4   :C:\SCENARIOS 02042021\FULLX200A\                                                

@YEAR DOY   DAS    SOCD   OMAC   TFOM   HUM1   HUM2   HUM3   HUM4  HUM5    HUM6   HUM7   HUM8   HUM9 HUM10 HUM11 HUM12 HUM13 HUM14 HUM15  TFON  NHU1  NHU2  NHU3  NHU4  NHU5  NHU6  NHU7  NHU8  NHU9 NHU10 NHU11 NHU12 NHU13 NHU14 NHU15  SNDD  SCDD
 2014 122     0  109605     36      0   9809  20006  18724  15098  15093  13514  10094   7264      0     0     0     0     0     0     0     0   911  1857  1744  1414  1414  1267   947   681     0     0     0     0     0     0     0  1194 12764
 2014 132    10  109928     36      0   9956  20185  18722  15099  15093  13514  10094   7264      0     0     0     0     0     0     0     0   924  1874  1743  1414  1414  1267   947   681     0     0     0     0     0     0     0  1195 12780
 2014 142    20  109811     36      0   9905  20122  18719  15099  15093  13515  10094   7264      0     0     0     0     0     0     0     0   920  1868  1743  1414  1414  1267   947   681     0     0     0     0     0     0     0  1195 12774
 2014 152    30  109769     36      0   9890  20100  18715  15099  15093  13515  10094   7264      0     0     0     0     0     0     0     0   918  1866  1743  1414  1414  1267   947   681     0     0     0     0     0     0     0  1195 12772
 2014 162    40  109594     36      0   9814  20005  18711  15099  15093  13515  10094   7264      0     0     0     0     0     0     0     0   911  1857  1742  1414  1414  1267   947   681     0     0     0     0     0     0     0  1194 12762
 2014 172    50  109558     36      0   9801  19987  18705  15098  15093  13515  10094   7264      0     0     0     0     0     0     0     0   910  1855  1741  1414  1414  1267   947   681     0     0     0     0     0     0     0  1193 12760
 2014 182    60  109531     36      0   9793  19974  18700  15098  15092  13515  10094   7264      0     0     0     0     0     0     0     0   909  1854  1741  1414  1414  1267   947   681     0     0     0     0     0     0     0  1193 12758
 2014 192    70  109513     36      0   9788  19965  18695  15098  15092  13515  10094   7264      0     0     0     0     0     0     0     0   908  1853  1740  1414  1414  1267   947   681     0     0     0     0     0     0     0  1193 12757
 2014 202    80  109495     36      0   9784  19956  18692  15098  15092  13515  10094   7264      0     0     0     0     0     0     0     0   908  1852  1740  1414  1414  1267   947   681     0     0     0     0     0     0     0  1193 12756
 2014 212    90  109477     36      0   9780  19947  18688  15097  15091  13515  10094   7264      0     0     0     0     0     0     0     0   907  1851  1739  1414  1414  1267   947   681     0     0     0     0     0     0     0  1193 12755
 2014 222   100  109462     36      0   9776  19940  18685  15096  15091  13516  10094   7264      0     0     0     0     0     0     0     0   907  1850  1739  1414  1413  1267   947   681     0     0     0     0     0     0     0  1193 12754
 2014 232   110  109445     36      0   9772  19933  18679  15096  15090  13516  10094   7264      0     0     0     0     0     0     0     0   906  1849  1738  1414  1413  1267   947   681     0     0     0     0     0     0     0  1193 12753
 2014 242   120  109433     36      0   9770  19928  18675  15096  15090  13516  10094   7264      0     0     0     0     0     0     0     0   906  1849  1738  1414  1413  1267   947   681     0     0     0     0     0     0     0  1192 12752
 2014 252   130  109416     36      0   9766  19921  18669  15096  15090  13516  10094   7264      0     0     0     0     0     0     0     0   906  1848  1737  1414  1413  1267   947   681     0     0     0     0     0     0     0  1192 12751
 2014 262   140  109407     36      0   9764  19918  18665  15096  15090  13516  10094   7264      0     0     0     0     0     0     0     0   906  1847  1737  1414  1413  1267   947   681     0     0     0     0     0     0     0  1192 12750

*DSSAT Cropping System Model Ver. 4.0.2.000               Feb 23, 2021; 08:40:03

*RUN   6        :C:\SCENARIOS 02042021\FULLX200A\                                                
 MODEL          : MZCER040 - Maize           
 EXPERIMENT     : EXPDSSAT MZ    RZWQM2-NOT SPECIFIED                           
 TREATMENT  4   :C:\SCENARIOS 02042021\FULLX200A\                                                

@YEAR DOY   DAS    SOCD   OMAC   TFOM   HUM1   HUM2   HUM3   HUM4  HUM5    HUM6   HUM7   HUM8   HUM9 HUM10 HUM11 HUM12 HUM13 HUM14 HUM15  TFON  NHU1  NHU2  NHU3  NHU4  NHU5  NHU6  NHU7  NHU8  NHU9 NHU10 NHU11 NHU12 NHU13 NHU14 NHU15  SNDD  SCDD
 2015 121     0  109332     12      0   9744  19879  18644  15096  15091  13520  10095   7263      0     0     0     0     0     0     0     0   903  1843  1734  1414  1413  1267   947   681     0     0     0     0     0     0     0  1192 12745
 2015 131    10  109440     12      0   9795  19938  18642  15096  15090  13520  10095   7263      0     0     0     0     0     0     0     0   908  1848  1734  1414  1413  1268   947   681     0     0     0     0     0     0     0  1192 12751
 2015 141    20  109352     12      0   9756  19890  18640  15096  15090  13521  10095   7263      0     0     0     0     0     0     0     0   904  1844  1733  1414  1413  1268   947   681     0     0     0     0     0     0     0  1192 12746
 2015 151    30  109340     12      0   9753  19884  18637  15096  15090  13521  10095   7263      0     0     0     0     0     0     0     0   904  1843  1733  1414  1413  1268   947   681     0     0     0     0     0     0     0  1192 12745
 2015 161    40  109302     12      0   9738  19865  18633  15096  15090  13521  10095   7263      0     0     0     0     0     0     0     0   903  1841  1733  1414  1413  1268   947   681     0     0     0     0     0     0     0  1191 12743
 2015 171    50  109291     12      0   9736  19861  18629  15096  15090  13521  10095   7263      0     0     0     0     0     0     0     0   902  1841  1732  1414  1413  1268   947   681     0     0     0     0     0     0     0  1191 12742
