*SOIL TEMPERATURE OUTPUT FILE (DAILY)

*DSSAT Cropping System Model Ver. 4.0.2.000               Feb 23, 2021; 08:27:48

*RUN   1        :C:\SCENARIOS 02042021\FULLX200A\                                                
 MODEL          : MZCER040 - Maize           
 EXPERIMENT     : EXPDSSAT MZ    RZWQM2-NOT SPECIFIED                           
 TREATMENT  4   :C:\SCENARIOS 02042021\FULLX200A\                                                

@YEAR DOY   DAS  TS1D  TS2D  TS3D  TS4D  TS5D  TS6D  TS7D  TS8D  TS9D  TS10  TS11  TS12  TS13  TS14  TS15
 2010 111   110  13.8  15.0  14.0  11.9  10.9   9.8   8.4   6.8   0.0   0.0   0.0   0.0   0.0   0.0   0.0
 2010 121   120  11.3  14.4  15.0  13.5  12.5  11.3   9.6   7.9   0.0   0.0   0.0   0.0   0.0   0.0   0.0
 2010 131   130   9.6  10.9  11.2  10.9  10.8  10.5   9.9   8.8   0.0   0.0   0.0   0.0   0.0   0.0   0.0
 2010 141   140  13.9  15.4  14.7  12.7  11.7  11.0  10.2   9.3   0.0   0.0   0.0   0.0   0.0   0.0   0.0
 2010 151   150  16.5  19.1  19.0  17.0  16.0  14.7  13.0  10.9   0.0   0.0   0.0   0.0   0.0   0.0   0.0
 2010 161   160  23.7  23.4  21.7  19.5  18.1  16.5  14.6  12.4   0.0   0.0   0.0   0.0   0.0   0.0   0.0
 2010 171   170  20.7  21.4  21.3  20.6  19.8  18.4  16.3  14.1   0.0   0.0   0.0   0.0   0.0   0.0   0.0
 2010 181   180  21.5  23.2  23.1  21.8  20.9  19.5  17.7  15.7   0.0   0.0   0.0   0.0   0.0   0.0   0.0
 2010 191   190  21.6  22.7  22.2  20.9  20.2  19.4  18.1  16.7   0.0   0.0   0.0   0.0   0.0   0.0   0.0
 2010 201   200  23.7  24.6  24.1  22.9  22.0  20.8  19.3  17.7   0.0   0.0   0.0   0.0   0.0   0.0   0.0
 2010 211   210  25.4  25.9  25.0  23.3  22.4  21.4  20.1  18.7   0.0   0.0   0.0   0.0   0.0   0.0   0.0
 2010 221   220  26.3  27.1  26.3  24.5  23.5  22.3  21.0  19.7   0.0   0.0   0.0   0.0   0.0   0.0   0.0
 2010 231   230  24.3  24.9  24.2  22.8  22.3  21.9  21.3  20.4   0.0   0.0   0.0   0.0   0.0   0.0   0.0
 2010 241   240  22.5  23.5  23.3  22.4  22.1  21.8  21.4  20.8   0.0   0.0   0.0   0.0   0.0   0.0   0.0
 2010 251   250  18.3  19.4  19.9  20.0  20.3  20.7  20.9  20.9   0.0   0.0   0.0   0.0   0.0   0.0   0.0

*DSSAT Cropping System Model Ver. 4.0.2.000               Feb 23, 2021; 08:30:36

*RUN   2        :C:\SCENARIOS 02042021\FULLX200A\                                                
 MODEL          : MZCER040 - Maize           
 EXPERIMENT     : EXPDSSAT MZ    RZWQM2-NOT SPECIFIED                           
 TREATMENT  4   :C:\SCENARIOS 02042021\FULLX200A\                                                

@YEAR DOY   DAS  TS1D  TS2D  TS3D  TS4D  TS5D  TS6D  TS7D  TS8D  TS9D  TS10  TS11  TS12  TS13  TS14  TS15
 2011 123     0   6.1   8.8   8.9   6.9   5.9   4.8   3.5   2.0   0.0   0.0   0.0   0.0   0.0   0.0   0.0
 2011 133    10   7.4   8.9  10.3  10.6  10.1   8.6   6.4   3.8   0.0   0.0   0.0   0.0   0.0   0.0   0.0
 2011 143    20  13.6  15.7  15.0  12.4  10.8   9.1   7.3   5.2   0.0   0.0   0.0   0.0   0.0   0.0   0.0
 2011 153    30  19.2  19.2  17.4  14.7  13.1  11.3   9.1   6.9   0.0   0.0   0.0   0.0   0.0   0.0   0.0
 2011 163    40  18.6  20.0  19.0  16.8  15.4  13.8  11.5   9.0   0.0   0.0   0.0   0.0   0.0   0.0   0.0
 2011 173    50  18.9  20.3  19.8  18.1  17.0  15.4  13.2  10.7   0.0   0.0   0.0   0.0   0.0   0.0   0.0
 2011 183    60  21.9  22.7  22.1  20.5  19.2  17.1  14.6  12.3   0.0   0.0   0.0   0.0   0.0   0.0   0.0
 2011 193    70  22.4  23.1  22.9  21.8  20.7  18.9  16.6  14.1   0.0   0.0   0.0   0.0   0.0   0.0   0.0
 2011 203    80  25.6  26.5  25.3  23.1  21.9  20.3  18.1  15.8   0.0   0.0   0.0   0.0   0.0   0.0   0.0
 2011 213    90  27.7  28.1  26.5  23.7  22.4  20.8  19.0  17.1   0.0   0.0   0.0   0.0   0.0   0.0   0.0
 2011 223   100  20.3  22.0  22.3  21.8  21.4  20.9  19.8  18.3   0.0   0.0   0.0   0.0   0.0   0.0   0.0
 2011 233   110  22.1  23.5  23.2  22.0  21.4  20.7  19.8  18.8   0.0   0.0   0.0   0.0   0.0   0.0   0.0
 2011 243   120  23.6  24.4  23.7  22.1  21.5  20.9  20.2  19.4   0.0   0.0   0.0   0.0   0.0   0.0   0.0
 2011 253   130  17.8  19.8  20.2  19.7  19.6  19.7  19.8  19.7   0.0   0.0   0.0   0.0   0.0   0.0   0.0

*DSSAT Cropping System Model Ver. 4.0.2.000               Feb 23, 2021; 08:32:38

*RUN   3        :C:\SCENARIOS 02042021\FULLX200A\                                                
 MODEL          : MZCER040 - Maize           
 EXPERIMENT     : EXPDSSAT MZ    RZWQM2-NOT SPECIFIED                           
 TREATMENT  4   :C:\SCENARIOS 02042021\FULLX200A\                                                

@YEAR DOY   DAS  TS1D  TS2D  TS3D  TS4D  TS5D  TS6D  TS7D  TS8D  TS9D  TS10  TS11  TS12  TS13  TS14  TS15
 2012 115     0  12.3  13.8  12.3   9.6   8.5   7.7   6.8   5.7   0.0   0.0   0.0   0.0   0.0   0.0   0.0
 2012 125    10  17.3  18.3  16.8  14.0  12.3  10.4   8.6   6.9   0.0   0.0   0.0   0.0   0.0   0.0   0.0
 2012 135    20  13.8  16.6  16.3  13.9  12.6  11.4  10.0   8.4   0.0   0.0   0.0   0.0   0.0   0.0   0.0
 2012 145    30  15.7  17.6  17.5  15.8  14.6  13.1  11.4   9.7   0.0   0.0   0.0   0.0   0.0   0.0   0.0
 2012 155    40  19.7  20.7  19.0  16.2  14.9  13.7  12.5  10.9   0.0   0.0   0.0   0.0   0.0   0.0   0.0
 2012 165    50  24.5  24.5  22.1  19.0  17.5  16.0  14.3  12.4   0.0   0.0   0.0   0.0   0.0   0.0   0.0
 2012 175    60  21.7  22.6  21.7  19.8  18.8  17.6  15.9  13.9   0.0   0.0   0.0   0.0   0.0   0.0   0.0
 2012 185    70  25.4  26.3  24.7  22.2  20.9  19.4  17.5  15.4   0.0   0.0   0.0   0.0   0.0   0.0   0.0
 2012 195    80  23.8  25.3  24.4  22.1  21.1  19.9  18.4  16.7   0.0   0.0   0.0   0.0   0.0   0.0   0.0
 2012 205    90  25.1  26.7  26.0  23.7  22.6  21.2  19.6  17.8   0.0   0.0   0.0   0.0   0.0   0.0   0.0
 2012 215   100  24.4  25.8  25.6  24.0  23.1  21.9  20.5  18.9   0.0   0.0   0.0   0.0   0.0   0.0   0.0
 2012 225   110  19.8  21.7  22.2  21.8  21.7  21.4  20.8  19.7   0.0   0.0   0.0   0.0   0.0   0.0   0.0
 2012 235   120  20.3  22.3  22.3  21.2  20.7  20.4  20.1  19.8   0.0   0.0   0.0   0.0   0.0   0.0   0.0
 2012 245   130  22.6  24.7  24.6  23.1  22.3  21.6  20.9  20.2   0.0   0.0   0.0   0.0   0.0   0.0   0.0

*DSSAT Cropping System Model Ver. 4.0.2.000               Feb 23, 2021; 08:35:06

*RUN   4        :C:\SCENARIOS 02042021\FULLX200A\                                                
 MODEL          : MZCER040 - Maize           
 EXPERIMENT     : EXPDSSAT MZ    RZWQM2-NOT SPECIFIED                           
 TREATMENT  4   :C:\SCENARIOS 02042021\FULLX200A\                                                

@YEAR DOY   DAS  TS1D  TS2D  TS3D  TS4D  TS5D  TS6D  TS7D  TS8D  TS9D  TS10  TS11  TS12  TS13  TS14  TS15
 2013 136     0  14.5  15.6  14.3  11.6   9.8   7.7   5.5   3.5   0.0   0.0   0.0   0.0   0.0   0.0   0.0
 2013 146    10  18.1  18.1  16.1  13.3  11.6   9.8   7.8   5.4   0.0   0.0   0.0   0.0   0.0   0.0   0.0
 2013 156    20  14.0  15.4  15.3  14.0  13.0  11.6   9.6   7.4   0.0   0.0   0.0   0.0   0.0   0.0   0.0
 2013 166    30  20.6  21.5  20.1  17.2  15.5  13.5  11.2   8.9   0.0   0.0   0.0   0.0   0.0   0.0   0.0
 2013 176    40  24.0  24.8  23.0  20.2  18.5  16.3  13.7  11.0   0.0   0.0   0.0   0.0   0.0   0.0   0.0
 2013 186    50  22.7  23.4  21.9  19.6  18.3  16.8  14.9  12.7   0.0   0.0   0.0   0.0   0.0   0.0   0.0
 2013 196    60  21.2  23.0  22.7  21.1  20.1  18.7  16.6  14.3   0.0   0.0   0.0   0.0   0.0   0.0   0.0
 2013 206    70  21.7  22.3  22.0  20.9  20.2  19.0  17.3  15.5   0.0   0.0   0.0   0.0   0.0   0.0   0.0
 2013 216    80  20.4  21.2  20.9  20.0  19.4  18.5  17.4  16.2   0.0   0.0   0.0   0.0   0.0   0.0   0.0
 2013 226    90  18.4  19.8  20.3  20.1  19.9  19.3  18.3  17.1   0.0   0.0   0.0   0.0   0.0   0.0   0.0
 2013 236   100  25.2  25.7  24.4  22.2  21.2  20.0  18.8  17.7   0.0   0.0   0.0   0.0   0.0   0.0   0.0
 2013 246   110  20.1  22.4  22.6  21.8  21.6  21.0  20.0  18.7   0.0   0.0   0.0   0.0   0.0   0.0   0.0
 2013 256   120  17.5  19.8  21.3  21.7  21.6  21.3  20.5  19.4   0.0   0.0   0.0   0.0   0.0   0.0   0.0
 2013 266   130  16.9  18.5  19.2  19.2  19.3  19.4  19.5  19.4   0.0   0.0   0.0   0.0   0.0   0.0   0.0

*DSSAT Cropping System Model Ver. 4.0.2.000               Feb 23, 2021; 08:37:48

*RUN   5        :C:\SCENARIOS 02042021\FULLX200A\                                                
 MODEL          : MZCER040 - Maize           
 EXPERIMENT     : EXPDSSAT MZ    RZWQM2-NOT SPECIFIED                           
 TREATMENT  4   :C:\SCENARIOS 02042021\FULLX200A\                                                

@YEAR DOY   DAS  TS1D  TS2D  TS3D  TS4D  TS5D  TS6D  TS7D  TS8D  TS9D  TS10  TS11  TS12  TS13  TS14  TS15
 2014 122     0   5.5   8.0   7.7   5.9   5.1   4.2   2.8   0.7   0.0   0.0   0.0   0.0   0.0   0.0   0.0
 2014 132    10   6.3   7.7   8.6   8.7   8.2   7.0   4.9   2.4   0.0   0.0   0.0   0.0   0.0   0.0   0.0
 2014 142    20  15.0  16.2  15.1  12.2  10.4   8.2   6.0   3.9   0.0   0.0   0.0   0.0   0.0   0.0   0.0
 2014 152    30  18.2  18.9  18.0  16.2  14.7  12.5   9.6   6.5   0.0   0.0   0.0   0.0   0.0   0.0   0.0
 2014 162    40  18.2  19.8  19.2  17.0  15.6  13.9  11.6   9.0   0.0   0.0   0.0   0.0   0.0   0.0   0.0
 2014 172    50  21.8  22.8  21.7  19.6  18.1  16.0  13.3  10.7   0.0   0.0   0.0   0.0   0.0   0.0   0.0
 2014 182    60  18.6  20.5  20.5  19.3  18.3  16.8  14.7  12.5   0.0   0.0   0.0   0.0   0.0   0.0   0.0
 2014 192    70  23.4  23.9  22.4  19.9  18.7  17.3  15.6  13.7   0.0   0.0   0.0   0.0   0.0   0.0   0.0
 2014 202    80  26.8  26.5  23.6  20.0  18.5  17.2  16.0  14.7   0.0   0.0   0.0   0.0   0.0   0.0   0.0
 2014 212    90  20.2  22.1  21.8  20.2  19.5  18.6  17.4  15.9   0.0   0.0   0.0   0.0   0.0   0.0   0.0
 2014 222   100  22.2  23.3  22.8  21.3  20.6  19.6  18.2  16.8   0.0   0.0   0.0   0.0   0.0   0.0   0.0
 2014 232   110  23.5  24.5  23.7  22.1  21.2  20.1  18.8  17.6   0.0   0.0   0.0   0.0   0.0   0.0   0.0
 2014 242   120  20.3  22.2  22.6  21.8  21.3  20.7  19.7  18.5   0.0   0.0   0.0   0.0   0.0   0.0   0.0
 2014 252   130  19.7  20.5  20.5  20.0  19.9  19.7  19.4  18.9   0.0   0.0   0.0   0.0   0.0   0.0   0.0
 2014 262   140  18.2  19.1  18.7  17.5  17.1  17.2  17.6  18.3   0.0   0.0   0.0   0.0   0.0   0.0   0.0

*DSSAT Cropping System Model Ver. 4.0.2.000               Feb 23, 2021; 08:40:03

*RUN   6        :C:\SCENARIOS 02042021\FULLX200A\                                                
 MODEL          : MZCER040 - Maize           
 EXPERIMENT     : EXPDSSAT MZ    RZWQM2-NOT SPECIFIED                           
 TREATMENT  4   :C:\SCENARIOS 02042021\FULLX200A\                                                

@YEAR DOY   DAS  TS1D  TS2D  TS3D  TS4D  TS5D  TS6D  TS7D  TS8D  TS9D  TS10  TS11  TS12  TS13  TS14  TS15
 2015 121     0  11.4  12.3  10.9   8.5   7.2   5.7   4.1   2.4   0.0   0.0   0.0   0.0   0.0   0.0   0.0
 2015 131    10   5.3   7.4   8.7   8.9   8.7   7.9   6.3   4.2   0.0   0.0   0.0   0.0   0.0   0.0   0.0
 2015 141    20   8.6  11.7  12.0  10.2   9.3   8.5   7.2   5.5   0.0   0.0   0.0   0.0   0.0   0.0   0.0
 2015 151    30  11.2  13.9  14.3  12.6  11.6  10.2   8.5   6.6   0.0   0.0   0.0   0.0   0.0   0.0   0.0
 2015 161    40  22.2  23.3  21.8  18.7  16.6  14.1  11.2   8.6   0.0   0.0   0.0   0.0   0.0   0.0   0.0
 2015 171    50  22.9  23.5  21.8  18.9  17.2  15.3  13.0  10.5   0.0   0.0   0.0   0.0   0.0   0.0   0.0
