*SOIL WATER DAILY OUTPUT FILE

*DSSAT Cropping System Model Ver. 4.0.2.000               Feb 23, 2021; 08:27:48

*RUN   1        :C:\SCENARIOS 02042021\FULLX200A\                                                
 MODEL          : MZCER040 - Maize           
 EXPERIMENT     : EXPDSSAT MZ    RZWQM2-NOT SPECIFIED                           
 TREATMENT  4   :C:\SCENARIOS 02042021\FULLX200A\                                                

@YEAR DOY   DAS  SWXD   ROFC   DRNC   PREC  IR#C  IRRC  DTWT   SW1D   SW2D   SW3D   SW4D   SW5D   SW6D   SW7D   SW8D   SW9D   SW10   SW11   SW12   SW13   SW14   SW15
 2010 111   110   113      0      0      0     0     0 15000  0.288  0.296  0.257  0.312  0.308  0.307  0.326  0.235  0.000  0.000  0.000  0.000  0.000  0.000  0.000
 2010 121   120   131      0      0     26     0     0 15000  0.309  0.331  0.318  0.337  0.313  0.308  0.327  0.234  0.000  0.000  0.000  0.000  0.000  0.000  0.000
 2010 131   130   147      0      0     51     0     0 15000  0.333  0.361  0.366  0.351  0.328  0.310  0.328  0.233  0.000  0.000  0.000  0.000  0.000  0.000  0.000
 2010 141   140   185      0      1     97     0     0 15000  0.332  0.360  0.369  0.405  0.414  0.364  0.328  0.231  0.000  0.000  0.000  0.000  0.000  0.000  0.000
 2010 151   150   214      0      1    141     0     0 15000  0.320  0.345  0.337  0.393  0.403  0.424  0.401  0.230  0.000  0.000  0.000  0.000  0.000  0.000  0.000
 2010 161   160   216      0      1    165     0     0 15000  0.316  0.343  0.346  0.387  0.393  0.413  0.427  0.229  0.000  0.000  0.000  0.000  0.000  0.000  0.000
 2010 171   170   285     15     17    300     0     0 15000  0.349  0.371  0.386  0.412  0.418  0.439  0.468  0.335  0.000  0.000  0.000  0.000  0.000  0.000  0.000
 2010 181   180   223     15     71    347     0     0 15000  0.267  0.285  0.281  0.364  0.371  0.400  0.450  0.326  0.000  0.000  0.000  0.000  0.000  0.000  0.000
 2010 191   190   242     16     81    389     1    41 15000  0.322  0.350  0.358  0.399  0.407  0.402  0.430  0.302  0.000  0.000  0.000  0.000  0.000  0.000  0.000
 2010 201   200   185     16     86    398     1    41 15000  0.273  0.292  0.278  0.343  0.345  0.365  0.417  0.287  0.000  0.000  0.000  0.000  0.000  0.000  0.000
 2010 211   210   165     16     88    403     2    74 15000  0.349  0.372  0.311  0.297  0.297  0.321  0.397  0.275  0.000  0.000  0.000  0.000  0.000  0.000  0.000
 2010 221   220   117     16     90    412     2    74 15000  0.272  0.293  0.254  0.274  0.273  0.295  0.370  0.261  0.000  0.000  0.000  0.000  0.000  0.000  0.000
 2010 231   230   110     16     90    423     3   108 15000  0.306  0.331  0.296  0.266  0.266  0.287  0.339  0.243  0.000  0.000  0.000  0.000  0.000  0.000  0.000
 2010 241   240   143     26     90    483     4   142 15000  0.285  0.312  0.309  0.368  0.368  0.325  0.330  0.225  0.000  0.000  0.000  0.000  0.000  0.000  0.000
 2010 251   250   115     26     91    488     4   142 15000  0.284  0.279  0.264  0.334  0.332  0.315  0.330  0.211  0.000  0.000  0.000  0.000  0.000  0.000  0.000
 2010 253   252   113     26     91    489     4   142 15000  0.285  0.277  0.259  0.330  0.328  0.314  0.330  0.210  0.000  0.000  0.000  0.000  0.000  0.000  0.000

*DSSAT Cropping System Model Ver. 4.0.2.000               Feb 23, 2021; 08:30:36

*RUN   2        :C:\SCENARIOS 02042021\FULLX200A\                                                
 MODEL          : MZCER040 - Maize           
 EXPERIMENT     : EXPDSSAT MZ    RZWQM2-NOT SPECIFIED                           
 TREATMENT  4   :C:\SCENARIOS 02042021\FULLX200A\                                                

@YEAR DOY   DAS  SWXD   ROFC   DRNC   PREC  IR#C  IRRC  DTWT   SW1D   SW2D   SW3D   SW4D   SW5D   SW6D   SW7D   SW8D   SW9D   SW10   SW11   SW12   SW13   SW14   SW15
 2011 123     0   192      0      0      0     0     0 15000  0.303  0.323  0.324  0.389  0.398  0.419  0.383  0.201  0.000  0.000  0.000  0.000  0.000  0.000  0.000
 2011 133    10   203      0      0     19     0     0 15000  0.340  0.370  0.340  0.384  0.392  0.414  0.403  0.200  0.000  0.000  0.000  0.000  0.000  0.000  0.000
 2011 143    20   232      0      0     58     0     0 15000  0.316  0.343  0.347  0.398  0.408  0.428  0.475  0.204  0.000  0.000  0.000  0.000  0.000  0.000  0.000
 2011 153    30   275      0      7    123     0     0 15000  0.335  0.360  0.350  0.397  0.407  0.428  0.474  0.345  0.000  0.000  0.000  0.000  0.000  0.000  0.000
 2011 163    40   238      0     30    124     0     0 15000  0.277  0.298  0.303  0.381  0.389  0.413  0.455  0.323  0.000  0.000  0.000  0.000  0.000  0.000  0.000
 2011 173    50   226      0     39    157     0     0 15000  0.308  0.331  0.312  0.365  0.371  0.399  0.443  0.307  0.000  0.000  0.000  0.000  0.000  0.000  0.000
 2011 183    60   196      0     45    183     0     0 15000  0.262  0.287  0.279  0.346  0.350  0.380  0.433  0.296  0.000  0.000  0.000  0.000  0.000  0.000  0.000
 2011 193    70   218      0     48    233     1    33 15000  0.275  0.300  0.299  0.374  0.382  0.407  0.437  0.287  0.000  0.000  0.000  0.000  0.000  0.000  0.000
 2011 203    80   151      0     50    240     1    33 15000  0.258  0.199  0.188  0.302  0.318  0.367  0.424  0.279  0.000  0.000  0.000  0.000  0.000  0.000  0.000
 2011 213    90   142      0     52    267     2    58 15000  0.280  0.304  0.241  0.274  0.280  0.331  0.409  0.268  0.000  0.000  0.000  0.000  0.000  0.000  0.000
 2011 223   100   166      0     53    293     4   109 15000  0.323  0.351  0.357  0.363  0.288  0.308  0.396  0.255  0.000  0.000  0.000  0.000  0.000  0.000  0.000
 2011 233   110   134      0     53    310     4   109 15000  0.277  0.302  0.292  0.312  0.290  0.301  0.385  0.245  0.000  0.000  0.000  0.000  0.000  0.000  0.000
 2011 243   120   155      0     53    348     5   135 15000  0.326  0.353  0.359  0.371  0.300  0.297  0.375  0.235  0.000  0.000  0.000  0.000  0.000  0.000  0.000
 2011 253   130   130      0     54    358     5   135 15000  0.279  0.304  0.293  0.328  0.312  0.299  0.369  0.228  0.000  0.000  0.000  0.000  0.000  0.000  0.000
 2011 258   135   124      0     54    363     5   135 15000  0.307  0.294  0.273  0.318  0.306  0.300  0.368  0.226  0.000  0.000  0.000  0.000  0.000  0.000  0.000

*DSSAT Cropping System Model Ver. 4.0.2.000               Feb 23, 2021; 08:32:38

*RUN   3        :C:\SCENARIOS 02042021\FULLX200A\                                                
 MODEL          : MZCER040 - Maize           
 EXPERIMENT     : EXPDSSAT MZ    RZWQM2-NOT SPECIFIED                           
 TREATMENT  4   :C:\SCENARIOS 02042021\FULLX200A\                                                

@YEAR DOY   DAS  SWXD   ROFC   DRNC   PREC  IR#C  IRRC  DTWT   SW1D   SW2D   SW3D   SW4D   SW5D   SW6D   SW7D   SW8D   SW9D   SW10   SW11   SW12   SW13   SW14   SW15
 2012 115     0   180      0      0      0     0     0 15000  0.300  0.318  0.318  0.383  0.388  0.388  0.375  0.213  0.000  0.000  0.000  0.000  0.000  0.000  0.000
 2012 125    10   242      2      0     74     0     0 15000  0.328  0.357  0.367  0.405  0.415  0.433  0.471  0.212  0.000  0.000  0.000  0.000  0.000  0.000  0.000
 2012 135    20   237      2      0     76     0     0 15000  0.293  0.319  0.318  0.388  0.397  0.418  0.460  0.286  0.000  0.000  0.000  0.000  0.000  0.000  0.000
 2012 145    30   234      2      1     83     0     0 15000  0.294  0.303  0.299  0.382  0.390  0.413  0.452  0.310  0.000  0.000  0.000  0.000  0.000  0.000  0.000
 2012 155    40   245      2      7    122     0     0 15000  0.300  0.328  0.330  0.391  0.400  0.420  0.453  0.304  0.000  0.000  0.000  0.000  0.000  0.000  0.000
 2012 165    50   203      2     11    122     0     0 15000  0.221  0.236  0.241  0.360  0.370  0.402  0.448  0.307  0.000  0.000  0.000  0.000  0.000  0.000  0.000
 2012 175    60   207      2     17    195     0     0 15000  0.334  0.365  0.317  0.312  0.330  0.381  0.435  0.299  0.000  0.000  0.000  0.000  0.000  0.000  0.000
 2012 185    70   135      2     20    195     0     0 15000  0.180  0.187  0.177  0.269  0.279  0.358  0.426  0.290  0.000  0.000  0.000  0.000  0.000  0.000  0.000
 2012 195    80   125      2     23    217     1    33 15000  0.243  0.263  0.187  0.263  0.265  0.317  0.412  0.281  0.000  0.000  0.000  0.000  0.000  0.000  0.000
 2012 205    90   102      2     25    220     2    74 15000  0.215  0.240  0.200  0.261  0.261  0.285  0.389  0.268  0.000  0.000  0.000  0.000  0.000  0.000  0.000
 2012 215   100   117      2     26    253     3   114 15000  0.331  0.355  0.281  0.259  0.259  0.281  0.361  0.252  0.000  0.000  0.000  0.000  0.000  0.000  0.000
 2012 225   110   112      3     26    264     4   155 15000  0.254  0.279  0.271  0.315  0.293  0.282  0.351  0.242  0.000  0.000  0.000  0.000  0.000  0.000  0.000
 2012 235   120   108      4     26    264     5   195 15000  0.256  0.281  0.271  0.314  0.293  0.283  0.345  0.235  0.000  0.000  0.000  0.000  0.000  0.000  0.000
 2012 245   130    99      4     27    287     5   195 15000  0.267  0.291  0.264  0.283  0.279  0.283  0.342  0.228  0.000  0.000  0.000  0.000  0.000  0.000  0.000

*DSSAT Cropping System Model Ver. 4.0.2.000               Feb 23, 2021; 08:35:06

*RUN   4        :C:\SCENARIOS 02042021\FULLX200A\                                                
 MODEL          : MZCER040 - Maize           
 EXPERIMENT     : EXPDSSAT MZ    RZWQM2-NOT SPECIFIED                           
 TREATMENT  4   :C:\SCENARIOS 02042021\FULLX200A\                                                

@YEAR DOY   DAS  SWXD   ROFC   DRNC   PREC  IR#C  IRRC  DTWT   SW1D   SW2D   SW3D   SW4D   SW5D   SW6D   SW7D   SW8D   SW9D   SW10   SW11   SW12   SW13   SW14   SW15
 2013 136     0   161      0      0      0     0     0 15000  0.299  0.319  0.317  0.378  0.380  0.357  0.352  0.210  0.000  0.000  0.000  0.000  0.000  0.000  0.000
 2013 146    10   218      7      0     75     0     0 15000  0.328  0.357  0.367  0.405  0.415  0.433  0.393  0.209  0.000  0.000  0.000  0.000  0.000  0.000  0.000
 2013 156    20   263     28     28    180     0     0 15000  0.330  0.347  0.329  0.391  0.400  0.422  0.465  0.340  0.000  0.000  0.000  0.000  0.000  0.000  0.000
 2013 166    30   239     28     44    184     0     0 15000  0.293  0.306  0.303  0.383  0.391  0.414  0.454  0.319  0.000  0.000  0.000  0.000  0.000  0.000  0.000
 2013 176    40   212     28     53    193     0     0 15000  0.263  0.238  0.272  0.368  0.375  0.403  0.445  0.307  0.000  0.000  0.000  0.000  0.000  0.000  0.000
 2013 186    50   159     28     58    193     0     0 15000  0.182  0.182  0.227  0.311  0.321  0.361  0.432  0.297  0.000  0.000  0.000  0.000  0.000  0.000  0.000
 2013 196    60   127     28     61    195     1    34 15000  0.201  0.220  0.212  0.272  0.274  0.309  0.420  0.288  0.000  0.000  0.000  0.000  0.000  0.000  0.000
 2013 206    70   127     28     64    218     2    68 15000  0.299  0.326  0.260  0.261  0.261  0.284  0.391  0.277  0.000  0.000  0.000  0.000  0.000  0.000  0.000
 2013 216    80   151     45     66    303     2    68 15000  0.340  0.355  0.342  0.346  0.273  0.285  0.376  0.267  0.000  0.000  0.000  0.000  0.000  0.000  0.000
 2013 226    90   126     45     67    323     2    68 15000  0.326  0.345  0.278  0.291  0.274  0.285  0.364  0.258  0.000  0.000  0.000  0.000  0.000  0.000  0.000
 2013 236   100    93     45     67    336     2    68 15000  0.258  0.258  0.222  0.267  0.266  0.285  0.348  0.249  0.000  0.000  0.000  0.000  0.000  0.000  0.000
 2013 246   110    53     45     68    336     2    68 15000  0.166  0.166  0.155  0.257  0.257  0.278  0.324  0.235  0.000  0.000  0.000  0.000  0.000  0.000  0.000
 2013 256   120    63     45     68    350     3   101 15000  0.275  0.266  0.157  0.257  0.257  0.278  0.318  0.221  0.000  0.000  0.000  0.000  0.000  0.000  0.000
 2013 266   130    51     45     68    359     3   101 15000  0.239  0.199  0.156  0.257  0.257  0.278  0.317  0.211  0.000  0.000  0.000  0.000  0.000  0.000  0.000
 2013 269   133    45     45     68    359     3   101 15000  0.199  0.178  0.155  0.257  0.257  0.278  0.316  0.207  0.000  0.000  0.000  0.000  0.000  0.000  0.000

*DSSAT Cropping System Model Ver. 4.0.2.000               Feb 23, 2021; 08:37:48

*RUN   5        :C:\SCENARIOS 02042021\FULLX200A\                                                
 MODEL          : MZCER040 - Maize           
 EXPERIMENT     : EXPDSSAT MZ    RZWQM2-NOT SPECIFIED                           
 TREATMENT  4   :C:\SCENARIOS 02042021\FULLX200A\                                                

@YEAR DOY   DAS  SWXD   ROFC   DRNC   PREC  IR#C  IRRC  DTWT   SW1D   SW2D   SW3D   SW4D   SW5D   SW6D   SW7D   SW8D   SW9D   SW10   SW11   SW12   SW13   SW14   SW15
 2014 122     0   154      0      0      0     0     0 15000  0.316  0.340  0.339  0.384  0.387  0.367  0.322  0.180  0.000  0.000  0.000  0.000  0.000  0.000  0.000
 2014 132    10   211      1      0     63     0     0 15000  0.340  0.371  0.388  0.413  0.419  0.440  0.360  0.190  0.000  0.000  0.000  0.000  0.000  0.000  0.000
 2014 142    20   207      1      0     66     0     0 15000  0.317  0.328  0.319  0.388  0.397  0.419  0.445  0.190  0.000  0.000  0.000  0.000  0.000  0.000  0.000
 2014 152    30   237      1      0    104     0     0 15000  0.339  0.370  0.387  0.412  0.418  0.425  0.451  0.202  0.000  0.000  0.000  0.000  0.000  0.000  0.000
 2014 162    40   250      1      0    140     0     0 15000  0.320  0.340  0.335  0.392  0.402  0.424  0.470  0.289  0.000  0.000  0.000  0.000  0.000  0.000  0.000
 2014 172    50   267      1      3    201     0     0 15000  0.334  0.365  0.383  0.411  0.418  0.422  0.449  0.317  0.000  0.000  0.000  0.000  0.000  0.000  0.000
 2014 182    60   244      1     12    235     0     0 15000  0.289  0.316  0.320  0.385  0.394  0.415  0.455  0.323  0.000  0.000  0.000  0.000  0.000  0.000  0.000
 2014 192    70   212      1     22    275     0     0 15000  0.303  0.329  0.272  0.348  0.358  0.392  0.440  0.307  0.000  0.000  0.000  0.000  0.000  0.000  0.000
 2014 202    80   150      1     27    276     0     0 15000  0.211  0.223  0.197  0.301  0.311  0.354  0.421  0.292  0.000  0.000  0.000  0.000  0.000  0.000  0.000
 2014 212    90   124      1     30    277     1    34 15000  0.260  0.281  0.199  0.272  0.273  0.306  0.400  0.279  0.000  0.000  0.000  0.000  0.000  0.000  0.000
 2014 222   100   193     14     32    347     3   101 15000  0.326  0.354  0.360  0.398  0.402  0.326  0.378  0.266  0.000  0.000  0.000  0.000  0.000  0.000  0.000
 2014 232   110   159     14     33    364     3   101 15000  0.302  0.329  0.311  0.344  0.342  0.325  0.369  0.257  0.000  0.000  0.000  0.000  0.000  0.000  0.000
 2014 242   120   202     14     33    450     3   101 15000  0.319  0.347  0.351  0.397  0.406  0.392  0.364  0.251  0.000  0.000  0.000  0.000  0.000  0.000  0.000
 2014 252   130   189     14     34    469     3   101 15000  0.353  0.371  0.327  0.367  0.370  0.379  0.369  0.246  0.000  0.000  0.000  0.000  0.000  0.000  0.000
 2014 262   140   188     14     34    486     3   101 15000  0.296  0.323  0.321  0.381  0.385  0.388  0.372  0.242  0.000  0.000  0.000  0.000  0.000  0.000  0.000
 2014 270   148   184     14     35    494     3   101 15000  0.303  0.326  0.310  0.373  0.377  0.387  0.376  0.240  0.000  0.000  0.000  0.000  0.000  0.000  0.000

*DSSAT Cropping System Model Ver. 4.0.2.000               Feb 23, 2021; 08:40:03

*RUN   6        :C:\SCENARIOS 02042021\FULLX200A\                                                
 MODEL          : MZCER040 - Maize           
 EXPERIMENT     : EXPDSSAT MZ    RZWQM2-NOT SPECIFIED                           
 TREATMENT  4   :C:\SCENARIOS 02042021\FULLX200A\                                                

@YEAR DOY   DAS  SWXD   ROFC   DRNC   PREC  IR#C  IRRC  DTWT   SW1D   SW2D   SW3D   SW4D   SW5D   SW6D   SW7D   SW8D   SW9D   SW10   SW11   SW12   SW13   SW14   SW15
 2015 121     0   226      0      0      0     0     0 15000  0.309  0.330  0.331  0.392  0.402  0.423  0.454  0.232  0.000  0.000  0.000  0.000  0.000  0.000  0.000
 2015 131    10   269     25      9     89     0     0 15000  0.317  0.344  0.343  0.395  0.404  0.425  0.470  0.347  0.000  0.000  0.000  0.000  0.000  0.000  0.000
 2015 141    20   276     25     41    141     0     0 15000  0.322  0.350  0.353  0.398  0.408  0.427  0.472  0.351  0.000  0.000  0.000  0.000  0.000  0.000  0.000
 2015 151    30   248     25     65    145     0     0 15000  0.297  0.319  0.316  0.387  0.396  0.417  0.459  0.326  0.000  0.000  0.000  0.000  0.000  0.000  0.000
 2015 161    40   307    113     96    340     0     0 15000  0.339  0.370  0.386  0.412  0.418  0.440  0.491  0.387  0.000  0.000  0.000  0.000  0.000  0.000  0.000
 2015 171    50   263    113    144    370     0     0 15000  0.318  0.346  0.351  0.397  0.406  0.425  0.461  0.328  0.000  0.000  0.000  0.000  0.000  0.000  0.000
