*SOIL NITROGEN DAILY OUTPUT FILE

*DSSAT Cropping System Model Ver. 4.0.2.000               Feb 23, 2021; 08:27:48

*RUN   1        :C:\SCENARIOS 02042021\FULLX200A\                                                
 MODEL          : MZCER040 - Maize           
 EXPERIMENT     : EXPDSSAT MZ    RZWQM2-NOT SPECIFIED                           
 TREATMENT  4   :C:\SCENARIOS 02042021\FULLX200A\                                                

@YEAR DOY   DAS  NAPC  NI#M    NLCC   NIAD    NOAD   NITD   NHTD  NI1D  NI2D  NI3D  NI4D  NI5D  NI6D  NI7D  NI8D  NI9D  NI10  NI11  NI12  NI13  NI14  NI15  NH1D  NH2D  NH3D  NH4D  NH5D  NH6D  NH7D  NH8D  NH9D  NH10  NH11  NH12  NH13  NH14  NH15    NMNC    NITC    NDNC    NIMC    AMLC
 2010 111   110     0     0     2.5  111.2   10472  110.6    0.6  11.4  11.9   4.3   3.7   3.8   5.3   7.2   5.1   0.0   0.0   0.0   0.0   0.0   0.0   0.0   0.3   0.3   0.0   0.0   0.0  0.00  0.00  0.00  0.00  0.00  0.00  0.00  0.00  0.00  0.00    0.46    0.00    0.00    0.00    0.00
 2010 121   120     0     0     2.5  114.9   10303  114.5    0.5  10.3  10.4   7.1   4.1   3.9   5.3   7.2   5.1   0.0   0.0   0.0   0.0   0.0   0.0   0.0   0.2   0.2   0.0   0.0   0.0  0.00  0.00  0.00  0.00  0.00  0.00  0.00  0.00  0.00  0.00    0.43    0.00    0.01    0.00    0.00
 2010 131   130     0     0     2.6  120.5   10190  118.6    1.9   6.4  11.0   9.5   4.5   4.2   5.3   7.2   5.1   0.0   0.0   0.0   0.0   0.0   0.0   0.0   0.6   1.3   0.1   0.0   0.0  0.00  0.00  0.00  0.00  0.00  0.00  0.00  0.00  0.00  0.00    0.13    0.00    0.01    0.00    0.00
 2010 141   140     0     0     2.6  125.0   10108  122.6    2.4   2.8   6.0   9.3   6.6   5.9   6.1   7.3   5.1   0.0   0.0   0.0   0.0   0.0   0.0   0.0   1.2   1.5   0.0   0.0   0.0  0.00  0.00  0.00  0.00  0.00  0.00  0.00  0.00  0.00  0.00    0.10    0.00    0.01    0.00    0.00
 2010 151   150     0     0     2.7  120.7   10082  120.3    0.4   2.3   2.8   5.0   6.1   6.3   7.0   8.6   5.0   0.0   0.0   0.0   0.0   0.0   0.0   0.0   0.2   0.1   0.1   0.0   0.0  0.00  0.00  0.00  0.00  0.00  0.00  0.00  0.00  0.00  0.00    0.22    0.00    0.00    0.00    0.00
 2010 161   160     0     0     2.7  289.0   10075  197.1   91.9  39.0  44.0  11.6   5.9   5.8   6.8   9.1   5.0   0.0   0.0   0.0   0.0   0.0   0.0   0.0  79.9  42.4   0.1   0.0   0.0  0.00  0.00  0.00  0.00  0.00  0.00  0.00  0.00  0.00  0.00    0.39    0.00    0.03    0.00    0.05
 2010 171   170     0     0     6.3  239.7   10067  181.7   58.0   2.9   6.1  15.8  13.2  10.7   7.4   9.4   7.7   0.0   0.0   0.0   0.0   0.0   0.0   0.0  37.2  33.3   0.1   0.0   0.0  0.00  0.00  0.00  0.00  0.00  0.00  0.00  0.00  0.00  0.00    0.50    0.00    0.01    0.00    0.01
 2010 181   180     0     0    19.9  150.6   10063  134.9   15.7   6.2   6.8   4.0   7.5   7.7   5.9   8.6   7.6   0.0   0.0   0.0   0.0   0.0   0.0   0.0  10.0   8.9   0.1   0.0   0.0  0.00  0.00  0.00  0.00  0.00  0.00  0.00  0.00  0.00  0.00    0.65    0.00    0.00    0.00    0.00
 2010 191   190     0     0    22.7   92.7   10060   92.2    0.5   1.7   2.0   2.7   4.0   4.9   3.5   7.0   7.0   0.0   0.0   0.0   0.0   0.0   0.0   0.0   0.3   0.2   0.1   0.0   0.0  0.00  0.00  0.00  0.00  0.00  0.00  0.00  0.00  0.00  0.00    0.25    0.00    0.00    0.00    0.00
 2010 201   200     0     0    23.8   77.0   10056   76.3    0.6   2.8   2.5   1.8   2.9   3.1   2.4   6.1   6.7   0.0   0.0   0.0   0.0   0.0   0.0   0.0   0.3   0.3   0.1   0.0   0.0  0.00  0.00  0.00  0.00  0.00  0.00  0.00  0.00  0.00  0.00    0.69    0.00    0.00    0.00    0.00
 2010 211   210     0     0    24.5   81.1   10052   80.6    0.4   1.9   4.2   3.8   3.0   3.1   2.5   6.1   6.5   0.0   0.0   0.0   0.0   0.0   0.0   0.0   0.2   0.1   0.1   0.0   0.0  0.00  0.00  0.00  0.00  0.00  0.00  0.00  0.00  0.00  0.00    0.54    0.00    0.00    0.00    0.00
 2010 221   220     0     0    24.8   69.5   10048   68.8    0.7   3.0   3.1   2.7   2.3   2.4   2.0   5.5   5.9   0.0   0.0   0.0   0.0   0.0   0.0   0.0   0.3   0.3   0.1   0.0   0.0  0.00  0.00  0.00  0.00  0.00  0.00  0.00  0.00  0.00  0.00    0.76    0.00    0.00    0.00    0.00
 2010 231   230     0     0    25.0   43.2   10044   42.6    0.5   0.6   0.7   0.7   1.3   1.3   1.1   3.9   4.6   0.0   0.0   0.0   0.0   0.0   0.0   0.0   0.2   0.2   0.1   0.0   0.0  0.00  0.00  0.00  0.00  0.00  0.00  0.00  0.00  0.00  0.00    0.46    0.00    0.00    0.00    0.00
 2010 241   240     0     0    25.0   18.0   10041   17.4    0.5   0.5   0.4   0.3   0.3   0.3   0.3   1.9   2.1   0.0   0.0   0.0   0.0   0.0   0.0   0.0   0.3   0.2   0.1   0.0   0.0  0.00  0.00  0.00  0.00  0.00  0.00  0.00  0.00  0.00  0.00    0.51    0.00    0.00    0.00    0.00
 2010 251   250     0     0    25.1   12.8   10037   12.4    0.4   0.8   0.9   0.4   0.3   0.3   0.3   1.1   1.2   0.0   0.0   0.0   0.0   0.0   0.0   0.0   0.2   0.2   0.1   0.0   0.0  0.00  0.00  0.00  0.00  0.00  0.00  0.00  0.00  0.00  0.00    0.39    0.00    0.00    0.00    0.00

*DSSAT Cropping System Model Ver. 4.0.2.000               Feb 23, 2021; 08:30:36

*RUN   2        :C:\SCENARIOS 02042021\FULLX200A\                                                
 MODEL          : MZCER040 - Maize           
 EXPERIMENT     : EXPDSSAT MZ    RZWQM2-NOT SPECIFIED                           
 TREATMENT  4   :C:\SCENARIOS 02042021\FULLX200A\                                                

@YEAR DOY   DAS  NAPC  NI#M    NLCC   NIAD    NOAD   NITD   NHTD  NI1D  NI2D  NI3D  NI4D  NI5D  NI6D  NI7D  NI8D  NI9D  NI10  NI11  NI12  NI13  NI14  NI15  NH1D  NH2D  NH3D  NH4D  NH5D  NH6D  NH7D  NH8D  NH9D  NH10  NH11  NH12  NH13  NH14  NH15    NMNC    NITC    NDNC    NIMC    AMLC
 2011 123     0     0     0     0.0   39.0   10376   38.8    0.2   1.5   2.3   6.0   3.6   1.5   0.8   1.5   1.2   0.0   0.0   0.0   0.0   0.0   0.0   0.0   0.1   0.1   0.0   0.0   0.0  0.00  0.00  0.00  0.00  0.00  0.00  0.00  0.00  0.00  0.00    0.15    0.00    0.00    0.00    0.00
 2011 133    10     0     0     0.0   40.8   10460   40.7    0.1   1.6   3.0   6.2   2.8   2.4   0.9   1.6   1.2   0.0   0.0   0.0   0.0   0.0   0.0   0.0   0.0   0.0   0.0   0.0   0.0  0.00  0.00  0.00  0.00  0.00  0.00  0.00  0.00  0.00  0.00    0.17    0.00    0.00    0.00    0.00
 2011 143    20     0     0     0.0   44.9   10398   43.8    1.1   1.8   2.3   4.9   3.5   3.0   1.4   1.8   1.2   0.0   0.0   0.0   0.0   0.0   0.0   0.0   0.2   0.6   0.1   0.0   0.0  0.00  0.00  0.00  0.00  0.00  0.00  0.00  0.00  0.00  0.00    0.22    0.00    0.00    0.00    0.00
 2011 153    30     0     0     0.3   43.5   10378   43.2    0.3   1.1   1.7   2.1   3.1   3.3   2.1   1.9   1.8   0.0   0.0   0.0   0.0   0.0   0.0   0.0   0.1   0.1   0.0   0.0   0.0  0.00  0.00  0.00  0.00  0.00  0.00  0.00  0.00  0.00  0.00    0.24    0.00    0.00    0.00    0.00
 2011 163    40     0     0     1.7  195.6   10374  110.1   85.5  60.2  29.5   1.1   2.2   2.5   2.1   1.9   1.7   0.0   0.0   0.0   0.0   0.0   0.0   0.0  77.2  28.7   0.1   0.0   0.0  0.00  0.00  0.00  0.00  0.00  0.00  0.00  0.00  0.00  0.00    0.33    0.00    0.01    0.00    0.06
 2011 173    50     0     0     2.2  151.3   10369   94.7   56.6  23.3  32.1   5.8   2.0   2.0   1.8   1.8   1.6   0.0   0.0   0.0   0.0   0.0   0.0   0.0  32.4  28.1   0.1   0.0   0.0  0.00  0.00  0.00  0.00  0.00  0.00  0.00  0.00  0.00  0.00    0.21    0.00    0.01    0.00    0.01
 2011 183    60     0     0     2.5   82.2   10365   63.4   18.8  14.3  15.7   6.4   1.6   1.4   1.2   1.8   1.6   0.0   0.0   0.0   0.0   0.0   0.0   0.0  10.3   9.5   0.1   0.0   0.0  0.00  0.00  0.00  0.00  0.00  0.00  0.00  0.00  0.00  0.00    0.59    0.00    0.00    0.00    0.00
 2011 193    70     0     0     2.8   14.3   10361   13.7    0.6   0.5   0.4   0.3   0.3   0.3   0.3   1.3   1.5   0.0   0.0   0.0   0.0   0.0   0.0   0.0   0.2   0.2   0.1   0.0   0.0  0.00  0.00  0.00  0.00  0.00  0.00  0.00  0.00  0.00  0.00    0.59    0.00    0.00    0.00    0.00
 2011 203    80     0     0     2.9   10.6   10357   10.1    0.5   0.6   0.6   0.3   0.3   0.3   0.3   0.5   1.4   0.0   0.0   0.0   0.0   0.0   0.0   0.0   0.2   0.2   0.0   0.0   0.0  0.00  0.00  0.00  0.00  0.00  0.00  0.00  0.00  0.00  0.00    0.46    0.00    0.00    0.00    0.00
 2011 213    90     0     0     3.0   11.1   10354   10.5    0.6   0.8   0.8   0.5   0.3   0.3   0.3   0.4   1.3   0.0   0.0   0.0   0.0   0.0   0.0   0.0   0.3   0.2   0.1   0.0   0.0  0.00  0.00  0.00  0.00  0.00  0.00  0.00  0.00  0.00  0.00    0.58    0.00    0.00    0.00    0.00
 2011 223   100     0     0     3.0    6.4   10351    6.1    0.3   0.2   0.3   0.3   0.3   0.3   0.3   0.3   0.6   0.0   0.0   0.0   0.0   0.0   0.0   0.0   0.1   0.1   0.1   0.0   0.0  0.00  0.00  0.00  0.00  0.00  0.00  0.00  0.00  0.00  0.00    0.18    0.00    0.00    0.00    0.00
 2011 233   110     0     0     3.0    5.9   10348    5.3    0.5   0.4   0.4   0.3   0.3   0.3   0.3   0.3   0.3   0.0   0.0   0.0   0.0   0.0   0.0   0.0   0.2   0.2   0.1   0.0   0.0  0.01  0.00  0.00  0.00  0.00  0.00  0.00  0.00  0.00  0.00    0.53    0.00    0.00    0.00    0.00
 2011 243   120     0     0     3.0    5.4   10344    5.0    0.3   0.2   0.3   0.3   0.3   0.3   0.3   0.3   0.3   0.0   0.0   0.0   0.0   0.0   0.0   0.0   0.1   0.1   0.1   0.0   0.0  0.01  0.00  0.00  0.00  0.00  0.00  0.00  0.00  0.00  0.00    0.20    0.00    0.00    0.00    0.00
 2011 253   130     0     0     3.0    5.6   10342    5.2    0.4   0.4   0.4   0.3   0.3   0.3   0.3   0.3   0.3   0.0   0.0   0.0   0.0   0.0   0.0   0.0   0.1   0.1   0.1   0.0   0.0  0.00  0.00  0.00  0.00  0.00  0.00  0.00  0.00  0.00  0.00    0.40    0.00    0.00    0.00    0.00

*DSSAT Cropping System Model Ver. 4.0.2.000               Feb 23, 2021; 08:32:38

*RUN   3        :C:\SCENARIOS 02042021\FULLX200A\                                                
 MODEL          : MZCER040 - Maize           
 EXPERIMENT     : EXPDSSAT MZ    RZWQM2-NOT SPECIFIED                           
 TREATMENT  4   :C:\SCENARIOS 02042021\FULLX200A\                                                

@YEAR DOY   DAS  NAPC  NI#M    NLCC   NIAD    NOAD   NITD   NHTD  NI1D  NI2D  NI3D  NI4D  NI5D  NI6D  NI7D  NI8D  NI9D  NI10  NI11  NI12  NI13  NI14  NI15  NH1D  NH2D  NH3D  NH4D  NH5D  NH6D  NH7D  NH8D  NH9D  NH10  NH11  NH12  NH13  NH14  NH15    NMNC    NITC    NDNC    NIMC    AMLC
 2012 115     0     0     0     0.0   47.6   10324   32.3   15.3   3.1   3.6   5.6   3.0   1.4   0.9   0.4   0.3   0.0   0.0   0.0   0.0   0.0   0.0   0.0  11.0   6.4   0.0   0.0   0.0  0.00  0.00  0.00  0.00  0.00  0.00  0.00  0.00  0.00  0.00    0.16    0.00    0.00    0.00    0.06
 2012 125    10     0     0     0.0   48.5   10339   37.3   11.2   1.3   2.1   4.8   3.9   2.9   1.5   0.7   0.3   0.0   0.0   0.0   0.0   0.0   0.0   0.0   6.2   5.5   0.1   0.0   0.0  0.00  0.00  0.00  0.00  0.00  0.00  0.00  0.00  0.00  0.00    0.09    0.00    0.01    0.00    0.00
 2012 135    20     0     0     0.0   52.2   10336   43.3    8.8   4.5   4.3   4.7   3.4   3.2   1.6   0.9   0.5   0.0   0.0   0.0   0.0   0.0   0.0   0.0   4.3   4.7   0.1   0.0   0.0  0.00  0.00  0.00  0.00  0.00  0.00  0.00  0.00  0.00  0.00    0.25    0.00    0.00    0.00    0.00
 2012 145    30     0     0     0.0  224.3   10332  125.6   98.7  61.6  39.9   4.9   3.3   3.3   1.7   0.9   0.5   0.0   0.0   0.0   0.0   0.0   0.0   0.0  81.0  37.0   0.0   0.0   0.0  0.00  0.00  0.00  0.00  0.00  0.00  0.00  0.00  0.00  0.00    0.33    0.00    0.01    0.00    0.08
 2012 155    40     0     0     0.1  198.8   10322  118.6   80.1  25.9  30.2  18.2   4.9   3.8   1.8   0.9   0.6   0.0   0.0   0.0   0.0   0.0   0.0   0.0  45.2  40.1   0.1   0.0   0.0  0.00  0.00  0.00  0.00  0.00  0.00  0.00  0.00  0.00  0.00    0.25    0.00    0.01    0.00    0.01
 2012 165    50     0     0     0.2  142.6   10319   96.5   46.1  25.2  25.0  12.1   3.6   3.3   1.6   1.0   0.6   0.0   0.0   0.0   0.0   0.0   0.0   0.0  25.0  23.5   0.0   0.0   0.0  0.00  0.00  0.00  0.00  0.00  0.00  0.00  0.00  0.00  0.00    0.30    0.00    0.00    0.00    0.01
 2012 175    60     0     0     0.3   56.6   10313   46.1   10.5   3.4   8.8   9.4   1.7   1.7   0.9   0.9   0.6   0.0   0.0   0.0   0.0   0.0   0.0   0.0   5.5   5.4   0.0   0.0   0.0  0.00  0.00  0.00  0.00  0.00  0.00  0.00  0.00  0.00  0.00    0.36    0.00    0.00    0.00    0.00
 2012 185    70     0     0     0.4    9.0   10309    8.5    0.4   0.4   0.4   0.3   0.3   0.3   0.3   0.9   0.6   0.0   0.0   0.0   0.0   0.0   0.0   0.0   0.1   0.1   0.0   0.0   0.0  0.00  0.00  0.00  0.00  0.00  0.00  0.00  0.00  0.00  0.00    0.41    0.00    0.00    0.00    0.00
 2012 195    80     0     0     0.5    8.7   10306    8.2    0.5   0.7   0.7   0.4   0.3   0.3   0.3   0.5   0.6   0.0   0.0   0.0   0.0   0.0   0.0   0.0   0.2   0.2   0.0   0.0   0.0  0.00  0.00  0.00  0.00  0.00  0.00  0.00  0.00  0.00  0.00    0.53    0.00    0.00    0.00    0.00
 2012 205    90     0     0     0.5    6.5   10302    5.9    0.6   0.4   0.4   0.3   0.3   0.3   0.3   0.3   0.4   0.0   0.0   0.0   0.0   0.0   0.0   0.0   0.2   0.2   0.0   0.0   0.0  0.01  0.00  0.00  0.00  0.00  0.00  0.00  0.00  0.00  0.00    0.58    0.00    0.00    0.00    0.00
 2012 215   100     0     0     0.5    5.6   10299    5.2    0.4   0.3   0.3   0.3   0.3   0.3   0.3   0.3   0.3   0.0   0.0   0.0   0.0   0.0   0.0   0.0   0.1   0.1   0.1   0.0   0.0  0.01  0.00  0.00  0.00  0.00  0.00  0.00  0.00  0.00  0.00    0.38    0.00    0.00    0.00    0.00
 2012 225   110     0     0     0.5    5.7   10296    5.3    0.5   0.4   0.4   0.3   0.3   0.3   0.3   0.3   0.3   0.0   0.0   0.0   0.0   0.0   0.0   0.0   0.1   0.1   0.1   0.0   0.0  0.01  0.00  0.00  0.00  0.00  0.00  0.00  0.00  0.00  0.00    0.45    0.00    0.00    0.00    0.00
 2012 235   120     0     0     0.5    5.7   10294    5.3    0.5   0.4   0.4   0.3   0.3   0.3   0.3   0.3   0.3   0.0   0.0   0.0   0.0   0.0   0.0   0.0   0.1   0.2   0.1   0.0   0.0  0.01  0.00  0.00  0.00  0.00  0.00  0.00  0.00  0.00  0.00    0.47    0.00    0.00    0.00    0.00
 2012 245   130     0     0     0.5    7.2   10291    6.6    0.5   0.8   0.8   0.5   0.3   0.3   0.3   0.3   0.3   0.0   0.0   0.0   0.0   0.0   0.0   0.0   0.2   0.2   0.1   0.0   0.0  0.01  0.00  0.00  0.00  0.00  0.00  0.00  0.00  0.00  0.00    0.55    0.00    0.00    0.00    0.00

*DSSAT Cropping System Model Ver. 4.0.2.000               Feb 23, 2021; 08:35:06

*RUN   4        :C:\SCENARIOS 02042021\FULLX200A\                                                
 MODEL          : MZCER040 - Maize           
 EXPERIMENT     : EXPDSSAT MZ    RZWQM2-NOT SPECIFIED                           
 TREATMENT  4   :C:\SCENARIOS 02042021\FULLX200A\                                                

@YEAR DOY   DAS  NAPC  NI#M    NLCC   NIAD    NOAD   NITD   NHTD  NI1D  NI2D  NI3D  NI4D  NI5D  NI6D  NI7D  NI8D  NI9D  NI10  NI11  NI12  NI13  NI14  NI15  NH1D  NH2D  NH3D  NH4D  NH5D  NH6D  NH7D  NH8D  NH9D  NH10  NH11  NH12  NH13  NH14  NH15    NMNC    NITC    NDNC    NIMC    AMLC
 2013 136     0     0     0     0.0   45.6   10274   38.4    7.2   3.0   3.3   5.8   3.7   2.2   1.4   0.5   0.3   0.0   0.0   0.0   0.0   0.0   0.0   0.0   5.2   3.0   0.0   0.0   0.0  0.00  0.00  0.00  0.00  0.00  0.00  0.00  0.00  0.00  0.00    0.24    0.00    0.00    0.00    0.00
 2013 146    10     0     0     0.0   46.3   10288   43.2    3.0   1.8   2.3   4.9   4.2   3.5   2.2   0.8   0.3   0.0   0.0   0.0   0.0   0.0   0.0   0.0   1.6   1.5   0.0   0.0   0.0  0.00  0.00  0.00  0.00  0.00  0.00  0.00  0.00  0.00  0.00    0.07    0.00    0.01    0.00    0.00
 2013 156    20     0     0     0.7   47.9   10273   46.5    1.3   1.8   2.1   2.1   3.1   3.4   3.1   2.0   1.0   0.0   0.0   0.0   0.0   0.0   0.0   0.0   0.3   0.8   0.1   0.0   0.0  0.00  0.00  0.00  0.00  0.00  0.00  0.00  0.00  0.00  0.00    0.17    0.00    0.01    0.00    0.00
 2013 166    30     0     0     1.3  211.1   10270  123.0   88.1  81.9  24.4   1.5   2.8   3.0   3.1   2.0   1.0   0.0   0.0   0.0   0.0   0.0   0.0   0.0 105.7  16.7   0.1   0.0   0.0  0.00  0.00  0.00  0.00  0.00  0.00  0.00  0.00  0.00  0.00    0.26    0.00    0.02    0.00    0.16
 2013 176    40     0     0     1.6  165.2   10267  108.8   56.4  38.7  37.3   1.4   2.4   2.4   2.9   2.0   1.0   0.0   0.0   0.0   0.0   0.0   0.0   0.0  35.6  26.4   0.1   0.0   0.0  0.00  0.00  0.00  0.00  0.00  0.00  0.00  0.00  0.00  0.00    0.37    0.00    0.01    0.00    0.02
 2013 186    50     0     0     1.8   88.8   10265   64.3   24.5  21.7  21.7   0.5   1.1   1.1   1.4   1.9   1.0   0.0   0.0   0.0   0.0   0.0   0.0   0.0  13.2  12.5   0.0   0.0   0.0  0.00  0.00  0.00  0.00  0.00  0.00  0.00  0.00  0.00  0.00    0.25    0.00    0.00    0.00    0.00
 2013 196    60     0     0     1.9   13.1   10262   12.7    0.4   0.7   0.7   0.3   0.3   0.3   0.3   1.4   1.0   0.0   0.0   0.0   0.0   0.0   0.0   0.0   0.1   0.1   0.0   0.0   0.0  0.00  0.00  0.00  0.00  0.00  0.00  0.00  0.00  0.00  0.00    0.39    0.00    0.00    0.00    0.00
 2013 206    70     0     0     2.0    8.3   10259    8.0    0.4   0.3   0.3   0.3   0.3   0.3   0.3   0.4   0.9   0.0   0.0   0.0   0.0   0.0   0.0   0.0   0.1   0.1   0.0   0.0   0.0  0.01  0.00  0.00  0.00  0.00  0.00  0.00  0.00  0.00  0.00    0.37    0.00    0.00    0.00    0.00
 2013 216    80     0     0     2.1    9.2   10257    9.0    0.2   0.3   0.4   0.7   0.5   0.4   0.3   0.3   0.9   0.0   0.0   0.0   0.0   0.0   0.0   0.0   0.1   0.1   0.0   0.0   0.0  0.00  0.00  0.00  0.00  0.00  0.00  0.00  0.00  0.00  0.00    0.31    0.00    0.00    0.00    0.00
 2013 226    90     0     0     2.1    6.9   10255    6.6    0.3   0.3   0.3   0.3   0.3   0.3   0.3   0.3   0.7   0.0   0.0   0.0   0.0   0.0   0.0   0.0   0.1   0.1   0.0   0.0   0.0  0.01  0.00  0.00  0.00  0.00  0.00  0.00  0.00  0.00  0.00    0.22    0.00    0.00    0.00    0.00
 2013 236   100     0     0     2.1    6.3   10252    5.8    0.5   0.4   0.4   0.3   0.3   0.3   0.3   0.3   0.4   0.0   0.0   0.0   0.0   0.0   0.0   0.0   0.2   0.2   0.0   0.0   0.0  0.01  0.00  0.00  0.00  0.00  0.00  0.00  0.00  0.00  0.00    0.49    0.00    0.00    0.00    0.00
 2013 246   110     0     0     2.1    5.6   10249    5.3    0.3   0.4   0.4   0.3   0.3   0.3   0.3   0.3   0.3   0.0   0.0   0.0   0.0   0.0   0.0   0.0   0.1   0.1   0.0   0.0   0.0  0.01  0.00  0.00  0.00  0.00  0.00  0.00  0.00  0.00  0.00    0.30    0.00    0.00    0.00    0.00
 2013 256   120     0     0     2.1    5.6   10247    5.2    0.4   0.3   0.4   0.3   0.3   0.3   0.3   0.3   0.3   0.0   0.0   0.0   0.0   0.0   0.0   0.0   0.1   0.1   0.0   0.0   0.0  0.01  0.00  0.00  0.00  0.00  0.00  0.00  0.00  0.00  0.00    0.41    0.00    0.00    0.00    0.00
 2013 266   130     0     0     2.1    5.9   10244    5.6    0.3   0.4   0.4   0.3   0.3   0.3   0.3   0.3   0.3   0.0   0.0   0.0   0.0   0.0   0.0   0.0   0.1   0.1   0.0   0.0   0.0  0.01  0.00  0.00  0.00  0.00  0.00  0.00  0.00  0.00  0.00    0.30    0.00    0.00    0.00    0.00

*DSSAT Cropping System Model Ver. 4.0.2.000               Feb 23, 2021; 08:37:48

*RUN   5        :C:\SCENARIOS 02042021\FULLX200A\                                                
 MODEL          : MZCER040 - Maize           
 EXPERIMENT     : EXPDSSAT MZ    RZWQM2-NOT SPECIFIED                           
 TREATMENT  4   :C:\SCENARIOS 02042021\FULLX200A\                                                

@YEAR DOY   DAS  NAPC  NI#M    NLCC   NIAD    NOAD   NITD   NHTD  NI1D  NI2D  NI3D  NI4D  NI5D  NI6D  NI7D  NI8D  NI9D  NI10  NI11  NI12  NI13  NI14  NI15  NH1D  NH2D  NH3D  NH4D  NH5D  NH6D  NH7D  NH8D  NH9D  NH10  NH11  NH12  NH13  NH14  NH15    NMNC    NITC    NDNC    NIMC    AMLC
 2014 122     0     0     0     0.0   25.0   10235   24.9    0.1   1.2   1.8   3.2   2.0   1.7   1.2   0.5   0.3   0.0   0.0   0.0   0.0   0.0   0.0   0.0   0.0   0.0   0.0   0.0   0.0  0.00  0.00  0.00  0.00  0.00  0.00  0.00  0.00  0.00  0.00    0.09    0.00    0.00    0.00    0.00
 2014 132    10     0     0     0.0   26.2   10265   26.2    0.1   0.3   0.8   2.5   2.4   2.1   1.6   0.7   0.3   0.0   0.0   0.0   0.0   0.0   0.0   0.0   0.0   0.0   0.0   0.0   0.0  0.00  0.00  0.00  0.00  0.00  0.00  0.00  0.00  0.00  0.00    0.05    0.00    0.00    0.00    0.00
 2014 142    20     0     0     0.0   30.1   10254   29.6    0.5   1.6   2.2   2.4   2.1   2.1   1.6   1.1   0.3   0.0   0.0   0.0   0.0   0.0   0.0   0.0   0.1   0.2   0.1   0.0   0.0  0.00  0.00  0.00  0.00  0.00  0.00  0.00  0.00  0.00  0.00    0.22    0.00    0.00    0.00    0.00
 2014 152    30     0     0     0.0   26.7   10250   26.6    0.2   0.6   1.1   1.8   1.8   2.2   1.7   1.1   0.3   0.0   0.0   0.0   0.0   0.0   0.0   0.0   0.1   0.1   0.0   0.0   0.0  0.00  0.00  0.00  0.00  0.00  0.00  0.00  0.00  0.00  0.00    0.30    0.00    0.00    0.00    0.00
 2014 162    40   181     0     0.0  152.5   10233   85.4   67.1  92.7   9.5   0.3   0.3   0.3   1.4   1.3   0.6   0.0   0.0   0.0   0.0   0.0   0.0   0.0  96.3   5.0   0.0   0.0   0.0  0.00  0.00  0.00  0.00  0.00  0.00  0.00  0.00  0.00  0.00    0.24    0.00    0.00    0.00    0.67
 2014 172    50     0     0     0.1  120.6   10230   66.8   53.8   5.6  15.6  16.0   1.7   0.3   1.1   1.3   0.7   0.0   0.0   0.0   0.0   0.0   0.0   0.0  35.6  24.3   0.0   0.0   0.0  0.00  0.00  0.00  0.00  0.00  0.00  0.00  0.00  0.00  0.00    0.19    0.00    0.02    0.00    0.01
 2014 182    60     0     0     0.3   53.6   10227   38.1   15.5   4.9   6.4   6.2   1.6   1.0   0.7   1.3   0.8   0.0   0.0   0.0   0.0   0.0   0.0   0.0   8.3   7.9   0.1   0.0   0.0  0.00  0.00  0.00  0.00  0.00  0.00  0.00  0.00  0.00  0.00    0.29    0.00    0.00    0.00    0.00
 2014 192    70     0     0     0.6    9.8   10225    9.5    0.3   0.4   0.3   0.3   0.3   0.3   0.3   1.0   0.8   0.0   0.0   0.0   0.0   0.0   0.0   0.0   0.1   0.1   0.0   0.0   0.0  0.00  0.00  0.00  0.00  0.00  0.00  0.00  0.00  0.00  0.00    0.24    0.00    0.00    0.00    0.00
 2014 202    80     0     0     0.7    7.1   10222    6.7    0.3   0.3   0.3   0.3   0.3   0.3   0.3   0.3   0.7   0.0   0.0   0.0   0.0   0.0   0.0   0.0   0.1   0.1   0.0   0.0   0.0  0.00  0.00  0.00  0.00  0.00  0.00  0.00  0.00  0.00  0.00    0.32    0.00    0.00    0.00    0.00
 2014 212    90     0     0     0.8    6.7   10220    6.3    0.4   0.3   0.4   0.3   0.3   0.3   0.3   0.3   0.6   0.0   0.0   0.0   0.0   0.0   0.0   0.0   0.1   0.1   0.0   0.0   0.0  0.00  0.00  0.00  0.00  0.00  0.00  0.00  0.00  0.00  0.00    0.39    0.00    0.00    0.00    0.00
 2014 222   100     0     0     0.8    5.4   10219    5.1    0.2   0.1   0.1   0.2   0.3   0.3   0.3   0.3   0.4   0.0   0.0   0.0   0.0   0.0   0.0   0.0   0.1   0.1   0.0   0.0   0.0  0.00  0.00  0.00  0.00  0.00  0.00  0.00  0.00  0.00  0.00    0.11    0.00    0.00    0.00    0.00
 2014 232   110     0     0     0.8    5.6   10216    5.2    0.4   0.4   0.3   0.3   0.3   0.3   0.3   0.3   0.3   0.0   0.0   0.0   0.0   0.0   0.0   0.0   0.1   0.1   0.1   0.0   0.0  0.00  0.00  0.00  0.00  0.00  0.00  0.00  0.00  0.00  0.00    0.37    0.00    0.00    0.00    0.00
 2014 242   120     0     0     0.8    5.2   10215    4.9    0.3   0.2   0.2   0.3   0.2   0.2   0.3   0.3   0.3   0.0   0.0   0.0   0.0   0.0   0.0   0.0   0.1   0.1   0.1   0.0   0.0  0.00  0.00  0.00  0.00  0.00  0.00  0.00  0.00  0.00  0.00    0.27    0.00    0.00    0.00    0.00
 2014 252   130     0     0     0.8    5.3   10213    5.1    0.2   0.2   0.3   0.3   0.3   0.3   0.3   0.3   0.3   0.0   0.0   0.0   0.0   0.0   0.0   0.0   0.1   0.1   0.1   0.0   0.0  0.00  0.00  0.00  0.00  0.00  0.00  0.00  0.00  0.00  0.00    0.31    0.00    0.00    0.00    0.00
 2014 262   140     0     0     0.8    5.4   10212    5.1    0.3   0.3   0.3   0.3   0.3   0.3   0.3   0.3   0.3   0.0   0.0   0.0   0.0   0.0   0.0   0.0   0.1   0.1   0.0   0.0   0.0  0.00  0.00  0.00  0.00  0.00  0.00  0.00  0.00  0.00  0.00    0.24    0.00    0.00    0.00    0.00

*DSSAT Cropping System Model Ver. 4.0.2.000               Feb 23, 2021; 08:40:03

*RUN   6        :C:\SCENARIOS 02042021\FULLX200A\                                                
 MODEL          : MZCER040 - Maize           
 EXPERIMENT     : EXPDSSAT MZ    RZWQM2-NOT SPECIFIED                           
 TREATMENT  4   :C:\SCENARIOS 02042021\FULLX200A\                                                

@YEAR DOY   DAS  NAPC  NI#M    NLCC   NIAD    NOAD   NITD   NHTD  NI1D  NI2D  NI3D  NI4D  NI5D  NI6D  NI7D  NI8D  NI9D  NI10  NI11  NI12  NI13  NI14  NI15  NH1D  NH2D  NH3D  NH4D  NH5D  NH6D  NH7D  NH8D  NH9D  NH10  NH11  NH12  NH13  NH14  NH15    NMNC    NITC    NDNC    NIMC    AMLC
 2015 121     0     0     0     0.0   33.3   10202   25.3    8.0   2.5   3.1   4.6   1.9   0.9   0.6   0.5   0.3   0.0   0.0   0.0   0.0   0.0   0.0   0.0   5.7   3.3   0.0   0.0   0.0  0.00  0.00  0.00  0.00  0.00  0.00  0.00  0.00  0.00  0.00    0.13    0.00    0.00    0.00    0.01
 2015 131    10     0     0     0.1   33.7   10212   28.9    4.8   1.8   1.9   3.7   2.7   2.2   1.0   0.6   0.5   0.0   0.0   0.0   0.0   0.0   0.0   0.0   2.7   2.4   0.0   0.0   0.0  0.00  0.00  0.00  0.00  0.00  0.00  0.00  0.00  0.00  0.00    0.09    0.00    0.00    0.00    0.00
 2015 141    20     0     0     0.6   36.5   10204   31.1    5.4   1.4   1.8   3.2   2.7   2.5   1.4   0.8   0.5   0.0   0.0   0.0   0.0   0.0   0.0   0.0   2.3   3.0   0.1   0.0   0.0  0.00  0.00  0.00  0.00  0.00  0.00  0.00  0.00  0.00  0.00    0.08    0.00    0.01    0.00    0.00
 2015 151    30     0     0     1.0   38.3   10203   35.5    2.8   3.9   3.7   3.1   2.6   2.5   1.5   0.9   0.5   0.0   0.0   0.0   0.0   0.0   0.0   0.0   1.2   1.5   0.0   0.0   0.0  0.00  0.00  0.00  0.00  0.00  0.00  0.00  0.00  0.00  0.00    0.16    0.00    0.00    0.00    0.00
 2015 161    40     0     0     1.6   23.5   10199   23.4    0.2   0.1   0.2   0.3   0.8   1.7   2.0   1.4   0.8   0.0   0.0   0.0   0.0   0.0   0.0   0.0   0.1   0.0   0.0   0.0   0.0  0.00  0.00  0.00  0.00  0.00  0.00  0.00  0.00  0.00  0.00    0.27    0.00    0.01    0.00    0.00
 2015 171    50     0     0     2.8   11.6   10198   11.3    0.2   0.3   0.3   0.3   0.2   0.3   0.3   1.4   0.8   0.0   0.0   0.0   0.0   0.0   0.0   0.0   0.1   0.1   0.0   0.0   0.0  0.00  0.00  0.00  0.00  0.00  0.00  0.00  0.00  0.00  0.00    0.20    0.00    0.00    0.00    0.00
